10
Lattice="16.28999089631971 0.0 0.0 0.0 16.28999089631971 0.0 0.0 0.0 34.28971787722196" Properties=species:S:1:pos:R:3:initial_magmoms:R:1 pbc="T T T"
Si       0.69506172       0.52947387       2.15003509       0.00000000
Si      -0.11481192      -2.31234921       0.22322619       0.00000000
Si       1.88397108       1.15137720      -0.96470746       0.00000000
Si      -2.03672960       1.31794850       0.10770406       0.00000000
Si       1.06854255       2.85008930       1.50041602       0.00000000
Si      -1.28322683       2.85662159      -1.48381979       0.00000000
Si      -1.39662152      -1.11617451      -2.98776766       0.00000000
Si      -0.83422230       1.25781983      -3.21730316       0.00000000
Si       0.94729608       3.34530530      -0.78403484       0.00000000
Si      -1.35532637       0.42671655       3.31554325       0.00000000
