10
Lattice="16.28999089631971 0.0 0.0 0.0 16.28999089631971 0.0 0.0 0.0 34.28971787722196" Properties=species:S:1:pos:R:3:initial_magmoms:R:1 pbc="T T T"
Si       0.62406990      -0.97239897       1.98578725       0.00000000
Si       1.55000979      -0.92426202      -1.43509407       0.00000000
Si       0.11481192       2.31234921      -0.22322619       0.00000000
Si      -1.95604523      -1.20646998      -0.48009061       0.00000000
Si       0.27473085      -0.65137194      -3.34403803       0.00000000
Si       1.30059360      -3.12279300      -0.69803618       0.00000000
Si       0.80987364       2.84182308       1.92680890       0.00000000
Si      -0.93605924      -3.16746018      -1.31590295       0.00000000
Si      -3.07068848       0.31412007      -1.89663394       0.00000000
Si      -1.35221987      -0.93318894       3.26157121       0.00000000
