10
Lattice="16.28999089631971 0.0 0.0 0.0 16.28999089631971 0.0 0.0 0.0 34.28971787722196" Properties=species:S:1:pos:R:3:initial_magmoms:R:1 pbc="T T T"
Si      -0.87047244       2.00236680      -0.84740227       0.00000000
Si      -1.31790661      -1.43519787       1.37550678       0.00000000
Si       0.59069169      -1.49791437      -1.76626435       0.00000000
Si       1.57413528       1.28273976       1.32988771       0.00000000
Si       0.09448200       2.54226627       2.82766686       0.00000000
Si      -2.63344859      -0.14597469       2.83979171       0.00000000
Si      -2.83125806       2.65676919       0.20128354       0.00000000
Si       2.37480507       3.17027576      -0.01714487       0.00000000
Si       2.80039761      -0.14960736       2.82698792       0.00000000
Si       0.08685828      -2.86414038       2.81366636       0.00000000
