10
Lattice="16.28999089631971 0.0 0.0 0.0 16.28999089631971 0.0 0.0 0.0 34.28971787722196" Properties=species:S:1:pos:R:3:initial_magmoms:R:1 pbc="T T T"
Si       1.34372952       1.33642834      -1.37868746       0.00000000
Si       1.40698359      -1.37579617       1.31216537       0.00000000
Si      -1.36935369      -1.38502224      -1.37121229       0.00000000
Si      -1.29632562       1.41857881       1.50497656       0.00000000
Si      -0.42529932      -2.36826693       2.35735084       0.00000000
Si      -2.04379227      -0.56124426       2.65992348       0.00000000
Si       2.68688889       2.68533808       0.01930512       0.00000000
Si      -2.73857706       2.67999496       0.00960113       0.00000000
Si      -0.01119123       2.68735804      -2.73508659       0.00000000
Si       2.70215262      -0.02527556      -2.73515516       0.00000000
