10
Lattice="16.28999089631971 0.0 0.0 0.0 16.28999089631971 0.0 0.0 0.0 34.28971787722196" Properties=species:S:1:pos:R:3:initial_magmoms:R:1 pbc="T T T"
Si       2.09150568      -0.82283071      -0.57699341       0.00000000
Si      -0.40858578      -0.12466737       2.28499950       0.00000000
Si       0.31946319       2.30873283      -0.30137250       0.00000000
Si      -1.47598803      -1.70899367      -0.69930490       0.00000000
Si      -2.38451391       1.15458633       1.85874378       0.00000000
Si       1.98801531       2.49781086       1.35753069       0.00000000
Si       1.63315395       0.81371808       3.08782511       0.00000000
Si       1.69580529      -1.92161238      -2.58633771       0.00000000
Si      -1.51899363      -3.41545004       0.91550169       0.00000000
Si       3.00470679      -2.26687472       1.02529743       0.00000000
