10
Lattice="16.28999089631971 0.0 0.0 0.0 16.28999089631971 0.0 0.0 0.0 34.28971787722196" Properties=species:S:1:pos:R:3:initial_magmoms:R:1 pbc="T T T"
Si       1.78289163       0.76836672       1.40190302       0.00000000
Si      -0.80066979      -1.88753600       1.34703258       0.00000000
Si       0.52103565       1.30736372      -2.03231842       0.00000000
Si      -1.89102465       1.76193617       0.22573829       0.00000000
Si      -3.24527751      -1.16790896      -0.83025740       0.00000000
Si       0.42727041       2.10044237       2.85985120       0.00000000
Si      -2.28032307      -0.62800949       2.84481173       0.00000000
Si       2.61317664       2.79320720       0.25778480       0.00000000
Si      -0.95630445       3.45875144       1.50529001       0.00000000
Si      -0.78807762       0.48690321      -3.79066185       0.00000000
