10
Lattice="16.28999089631971 0.0 0.0 0.0 16.28999089631971 0.0 0.0 0.0 34.28971787722196" Properties=species:S:1:pos:R:3:initial_magmoms:R:1 pbc="T T T"
Si      -1.35692442      -1.35767376      -1.35667345       0.00000000
Si       1.35762489       1.35733167      -1.35722208       0.00000000
Si       1.35602847      -1.35584928       1.36171404       0.00000000
Si      -1.35565380       1.35578412       1.36298276       0.00000000
Si       2.71539639       2.71311579       0.00065151       0.00000000
Si       2.71484253       0.00004887      -2.71434129       0.00000000
Si      -0.00001629      -2.71515204      -2.71423843       0.00000000
Si      -2.71503801      -0.00013032      -2.71440987       0.00000000
Si      -0.00027693       2.71515204      -2.71440987       0.00000000
Si      -2.71681036       2.71453302       0.00041148       0.00000000
