10
Lattice="16.28999089631971 0.0 0.0 0.0 16.28999089631971 0.0 0.0 0.0 34.28971787722196" Properties=species:S:1:pos:R:3:initial_magmoms:R:1 pbc="T T T"
Si      -1.35602847       1.35584928      -1.36171404       0.00000000
Si       1.35918873      -1.36168110      -1.36219409       0.00000000
Si       1.36497168       1.36306575       1.37539564       0.00000000
Si      -1.36819710      -1.36904418       1.38249362       0.00000000
Si      -2.71168227       2.71163340       0.00126872       0.00000000
Si      -2.71075374      -2.71399545      -0.00130301       0.00000000
Si       2.71410948      -2.71261080      -0.00579497       0.00000000
Si       2.71528236       2.71331127      -0.00514346       0.00000000
Si      -2.71295289      -0.00182448      -2.71838748       0.00000000
Si       0.00159642       2.71318095      -2.71893612       0.00000000
