10
Lattice="16.28999089631971 0.0 0.0 0.0 16.28999089631971 0.0 0.0 0.0 34.28971787722196" Properties=species:S:1:pos:R:3:initial_magmoms:R:1 pbc="T T T"
Si      -0.79439814      -1.82250891      -1.44136910       0.00000000
Si       1.84941999       0.92123208      -1.41568608       0.00000000
Si      -1.84797018       1.66887792      -0.28597641       0.00000000
Si      -0.27736983       1.00838358       2.30307019       0.00000000
Si       0.49651920       2.17101717      -2.94384250       0.00000000
Si      -2.23664958      -0.56109276      -2.93674453       0.00000000
Si      -0.92176965       3.48503373      -1.51324039       0.00000000
Si      -3.77186805       0.69462189      -1.37608144       0.00000000
Si       1.70155566       2.30531193       2.90091175       0.00000000
Si      -2.12304312       2.62055601       2.31325424       0.00000000
