10
Lattice="16.28999089631971 0.0 0.0 0.0 16.28999089631971 0.0 0.0 0.0 34.28971787722196" Properties=species:S:1:pos:R:3:initial_magmoms:R:1 pbc="T T T"
Si      -1.22828229      -1.07756721       1.74723355       0.00000000
Si       1.97892549       1.29692835       0.59784157       0.00000000
Si      -1.84567329       1.61217243       0.01018405       0.00000000
Si       0.27736983      -1.00838358      -2.30307019       0.00000000
Si      -1.57060035       0.66049434      -2.58904660       0.00000000
Si       0.44026983      -0.88848918       3.40613674       0.00000000
Si      -2.87230167       0.58870431       2.03410149       0.00000000
Si       2.62371627      -1.17646380       2.48922917       0.00000000
Si       2.44884312       2.83683834      -1.11109035       0.00000000
Si      -0.76419648       3.85067907      -0.00864101       0.00000000
