10
Lattice="16.28999089631971 0.0 0.0 0.0 16.28999089631971 0.0 0.0 0.0 34.28971787722196" Properties=species:S:1:pos:R:3:initial_magmoms:R:1 pbc="T T T"
Si      -0.35839629      -2.12685498      -0.90878090       0.00000000
Si       0.98890074       1.25348292      -1.75199982       0.00000000
Si      -1.88338464       1.19966076       0.80759189       0.00000000
Si       1.78005717      -0.54035559       1.47857346       0.00000000
Si       1.82505015      -2.41482960      -1.82568847       0.00000000
Si       3.16835613       1.65529206      -0.82929729       0.00000000
Si      -1.42493517       3.40594578      -0.03548988       0.00000000
Si       3.00625434      -2.24683083       0.21489378       0.00000000
Si      -3.82225302       0.26230158      -0.10557810       0.00000000
Si      -0.30626829       3.15330417      -2.23387350       0.00000000
