10
Lattice="16.28999089631971 0.0 0.0 0.0 16.28999089631971 0.0 0.0 0.0 34.28971787722196" Properties=species:S:1:pos:R:3:initial_magmoms:R:1 pbc="T T T"
Si      -1.93886838      -0.93735918      -0.91316999       0.00000000
Si       1.88338464      -1.19966076      -0.80759189       0.00000000
Si       0.45844947       2.20628502      -0.84308176       0.00000000
Si      -0.54765351      -0.10674837       2.34627526       0.00000000
Si      -2.43442647      -2.95616259       0.34286308       0.00000000
Si       2.87228538       0.05382216      -2.55959171       0.00000000
Si       1.73737737       3.34976157       0.86533580       0.00000000
Si      -1.99824543       1.61156970       2.89892295       0.00000000
Si       1.57711635       1.95364341      -3.04146539       0.00000000
Si       1.25884233       0.57824613       3.69338187       0.00000000
