10
Lattice="16.28999089631971 0.0 0.0 0.0 16.28999089631971 0.0 0.0 0.0 34.28971787722196" Properties=species:S:1:pos:R:3:initial_magmoms:R:1 pbc="T T T"
Si      -1.45059192       1.71831807       0.55264769       0.00000000
Si       1.80649584       0.68499450       1.34710661       0.00000000
Si       0.54765351       0.10674837      -2.34627526       0.00000000
Si      -1.10521134      -1.79857890       1.25106106       0.00000000
Si      -1.39121487      -0.83061081      -3.25944524       0.00000000
Si      -0.55645011      -3.66813333      -0.08503855       0.00000000
Si       2.85037533      -1.28519955       2.17887276       0.00000000
Si      -1.99246248       1.56035394       2.85561501       0.00000000
Si      -1.88677296      -2.84941422      -2.00341218       0.00000000
Si       1.24991541       1.71372429       3.40692540       0.00000000
