10
Lattice="16.28999089631971 0.0 0.0 0.0 16.28999089631971 0.0 0.0 0.0 34.28971787722196" Properties=species:S:1:pos:R:3:initial_magmoms:R:1 pbc="T T T"
Si      -2.23809939      -0.76554855       0.28244456       0.00000000
Si      -0.11075571       0.18138915      -2.42260421       0.00000000
Si       0.97526601       0.57578634       2.20386998       0.00000000
Si       0.75869046      -2.45034180       0.03243809       0.00000000
Si      -1.57527558       2.77456167       0.39402337       0.00000000
Si      -1.65336984      -1.99576935       2.29049481       0.00000000
Si       2.96520354       1.73628594      -0.91817629       0.00000000
Si      -3.36751930       1.30043070      -0.26938017       0.00000000
Si      -0.71864964      -0.29895408       3.57004652       0.00000000
Si       3.67116327      -0.30682215       0.23076993       0.00000000
