10
Lattice="16.28999089631971 0.0 0.0 0.0 16.28999089631971 0.0 0.0 0.0 34.28971787722196" Properties=species:S:1:pos:R:3:initial_magmoms:R:1 pbc="T T T"
Si       1.29052638      -1.32949206      -1.41349154       0.00000000
Si      -1.34407161      -1.36404315       1.34525496       0.00000000
Si       1.37166687       1.34799750       1.34597505       0.00000000
Si      -1.38306987       1.29860622      -1.40307432       0.00000000
Si       2.11991544       0.64083231      -2.61547644       0.00000000
Si      -2.22179310      -0.52225740      -2.65043928       0.00000000
Si      -0.46196811      -2.23757811      -2.74837184       0.00000000
Si       0.27240138       2.29882851      -2.74823468       0.00000000
Si      -2.70335808      -0.00778662       2.70312855       0.00000000
Si       0.01228266       2.70739800       2.70350574       0.00000000
