10
Lattice="16.28999089631971 0.0 0.0 0.0 16.28999089631971 0.0 0.0 0.0 34.28971787722196" Properties=species:S:1:pos:R:3:initial_magmoms:R:1 pbc="T T T"
Si       1.29516903      -1.89982125       0.48187367       0.00000000
Si       1.60871895       1.57483575      -0.85096840       0.00000000
Si      -1.11866688       0.25264161       2.19838362       0.00000000
Si      -1.25659431      -0.54099090      -2.08968515       0.00000000
Si      -2.70832653       1.42920315      -2.13522193       0.00000000
Si       1.48652766      -3.09474162      -1.48320258       0.00000000
Si       2.93065245       2.12991750       0.98891602       0.00000000
Si      -2.94555780       1.66910598       1.69127270       0.00000000
Si       0.30626829      -3.15330417       2.23387350       0.00000000
Si      -1.32258510       3.27435516      -1.60633702       0.00000000
