10
Lattice="16.28999089631971 0.0 0.0 0.0 16.28999089631971 0.0 0.0 0.0 34.28971787722196" Properties=species:S:1:pos:R:3:initial_magmoms:R:1 pbc="T T T"
Si       0.97528230      -0.66896514       2.00625822       0.00000000
Si      -2.07933705       1.04505237       0.27130040       0.00000000
Si       1.61331273       1.47771477      -0.84657932       0.00000000
Si      -0.23452713      -1.81348425      -1.49846151       0.00000000
Si      -2.72082096       0.92561409      -2.02720925       0.00000000
Si       2.10386979      -2.25404730      -1.74579338       0.00000000
Si      -1.29984426      -0.58218831      -3.26054252       0.00000000
Si      -0.20136069      -2.57567706       2.57728522       0.00000000
Si       3.29680278      -0.08145000      -1.61518377       0.00000000
Si      -2.33495973      -2.32497396       1.62732234       0.00000000
