10
Lattice="16.28999089631971 0.0 0.0 0.0 16.28999089631971 0.0 0.0 0.0 34.28971787722196" Properties=species:S:1:pos:R:3:initial_magmoms:R:1 pbc="T T T"
Si      -2.06522991      -1.04746329       0.06319599       0.00000000
Si       0.00796581       2.10918033      -1.12065719       0.00000000
Si       0.64148391       0.11943828       2.29850965       0.00000000
Si       1.42097670      -1.50780240      -1.23333326       0.00000000
Si       2.72082096      -0.92561409       2.02720925       0.00000000
Si       2.82919833       0.03209130      -2.34713250       0.00000000
Si       1.17436239       1.52391321      -3.13384194       0.00000000
Si      -1.61645670       3.34052514       0.31035641       0.00000000
Si       2.48629383      -2.73909834       0.52874775       0.00000000
Si      -3.34050885      -0.77457321      -1.84574797       0.00000000
