10
Lattice="16.28999089631971 0.0 0.0 0.0 16.28999089631971 0.0 0.0 0.0 34.28971787722196" Properties=species:S:1:pos:R:3:initial_magmoms:R:1 pbc="T T T"
Si       1.35334062      -1.35859935      -1.36126827       0.00000000
Si      -1.36252818       1.35674884      -1.36102824       0.00000000
Si       1.34692236       1.34980767       1.39665528       0.00000000
Si      -1.35304740      -1.38604800       1.36469724       0.00000000
Si      -2.65769721       0.00622823       2.68629229       0.00000000
Si       2.71028133      -2.71169562      -0.00010287       0.00000000
Si      -0.22688712       2.51440420       2.88836171       0.00000000
Si       2.71129131      -0.00078491      -2.71735879       0.00000000
Si      -2.71614573      -2.71306398      -0.00044577       0.00000000
Si       2.71288773       2.71656310       0.00253744       0.00000000
