10
Lattice="16.28999089631971 0.0 0.0 0.0 16.28999089631971 0.0 0.0 0.0 34.28971787722196" Properties=species:S:1:pos:R:3:initial_magmoms:R:1 pbc="T T T"
Si      -2.30251005       0.24306309       0.19274261       0.00000000
Si       0.60675363      -2.32363818       0.15276078       0.00000000
Si       0.39690585       1.07026929      -2.17047178       0.00000000
Si       0.80874963       1.11034269       2.06036743       0.00000000
Si       2.90475135      -1.62833211      -0.25731019       0.00000000
Si       2.52398889      -0.69856407       2.13563340       0.00000000
Si       1.28345652       3.15734409       0.61817538       0.00000000
Si      -1.13151969       0.23583033       3.44285217       0.00000000
Si      -1.00255176       2.90300832      -1.96559060       0.00000000
Si      -3.11912775      -1.60832799      -1.02906930       0.00000000
