10
Lattice="16.28999089631971 0.0 0.0 0.0 16.28999089631971 0.0 0.0 0.0 34.28971787722196" Properties=species:S:1:pos:R:3:initial_magmoms:R:1 pbc="T T T"
Si       2.30251005      -0.24306309      -0.19274261       0.00000000
Si      -0.82033182      -0.65767617       2.09177138       0.00000000
Si      -0.81661770      -1.85139108      -1.22181191       0.00000000
Si      -0.70595973       2.04310809      -1.14894622       0.00000000
Si       1.17099036      -0.00723276       3.25010956       0.00000000
Si      -2.69589726       0.88260849       1.97310005       0.00000000
Si      -0.45592452      -0.80982477      -3.39478684       0.00000000
Si      -2.91247281      -2.14351965      -0.19833184       0.00000000
Si       1.29995829       2.65994523      -2.15833321       0.00000000
Si       2.69941590       0.82720620      -2.36321439       0.00000000
