10
Lattice="16.28999089631971 0.0 0.0 0.0 16.28999089631971 0.0 0.0 0.0 34.28971787722196" Properties=species:S:1:pos:R:3:initial_magmoms:R:1 pbc="T T T"
Si      -1.35684297       1.35516510      -1.36209122       0.00000000
Si       1.36049193      -1.36001952      -1.36099395       0.00000000
Si       1.36710567       1.35552348       1.35965665       0.00000000
Si      -1.37158542      -1.36451556       1.39332917       0.00000000
Si      -2.71357191       2.71249677      -0.00401190       0.00000000
Si      -2.71474479      -2.71342530      -0.00466340       0.00000000
Si       2.71995759       2.70951570      -0.00281176       0.00000000
Si       0.00276930       2.71228500      -2.71739308       0.00000000
Si      -2.71277370      -0.00265527      -2.71783885       0.00000000
Si       2.71909422      -2.71531494       0.00243457       0.00000000
