10
Lattice="16.28999089631971 0.0 0.0 0.0 16.28999089631971 0.0 0.0 0.0 34.28971787722196" Properties=species:S:1:pos:R:3:initial_magmoms:R:1 pbc="T T T"
Si      -0.05608647      -2.15454798       0.90576340       0.00000000
Si      -1.18120419      -0.16799877      -2.04058225       0.00000000
Si       2.18558043       0.81197505      -0.49768124       0.00000000
Si      -1.22619717       1.70647524       1.26367968       0.00000000
Si       2.35949247       2.13374565       1.41321722       0.00000000
Si      -3.36465063       0.11997585      -1.12367468       0.00000000
Si       0.23949558       1.20669804      -3.38940335       0.00000000
Si       1.70007327       2.45493558      -2.08022119       0.00000000
Si       0.39258900       3.42709020       1.26834308       0.00000000
Si      -3.00625434       2.24683083      -0.21489378       0.00000000
