10
Lattice="16.28999089631971 0.0 0.0 0.0 16.28999089631971 0.0 0.0 0.0 34.28971787722196" Properties=species:S:1:pos:R:3:initial_magmoms:R:1 pbc="T T T"
Si      -0.80874963      -1.11034269      -2.06036743       0.00000000
Si       1.71523926      -1.80890676       0.07526597       0.00000000
Si      -1.94026932      -0.87451236       1.38248474       0.00000000
Si       0.47470689       2.04700140      -1.44219205       0.00000000
Si       0.78509655       1.92104712       1.53024951       0.00000000
Si       2.05638444       0.49213719       2.81704390       0.00000000
Si      -0.68859459      -2.23681248       2.81848407       0.00000000
Si      -3.11125968      -0.86727960      -1.86762482       0.00000000
Si       3.47822451      -0.75189753       1.22428561       0.00000000
Si       1.90223217       3.29084064       0.04450808       0.00000000
