10
Lattice="16.28999089631971 0.0 0.0 0.0 16.28999089631971 0.0 0.0 0.0 34.28971787722196" Properties=species:S:1:pos:R:3:initial_magmoms:R:1 pbc="T T T"
Si      -1.29052638       1.32949206       1.41349154       0.00000000
Si      -1.75249449      -0.90808605      -1.33488030       0.00000000
Si       1.42578225      -1.38794058       1.38596717       0.00000000
Si       0.82938906       1.97032437      -1.20198490       0.00000000
Si      -2.67359625       2.62809828       0.01041722       0.00000000
Si      -3.51231948       0.80723466      -1.23694774       0.00000000
Si      -2.63459799      -0.03455109       2.75874650       0.00000000
Si       0.08114049       2.67748956       2.75946659       0.00000000
Si       2.85637005       2.64300363      -0.11647538       0.00000000
Si       0.07444530      -2.75046876       2.76001522       0.00000000
