10
Lattice="16.28999089631971 0.0 0.0 0.0 16.28999089631971 0.0 0.0 0.0 34.28971787722196" Properties=species:S:1:pos:R:3:initial_magmoms:R:1 pbc="T T T"
Si      -1.34508159      -1.36624230      -1.38482532       0.00000000
Si       1.52186067      -1.23279462       1.32742430       0.00000000
Si       1.36731744       1.35205371      -1.38509964       0.00000000
Si      -1.58317623       1.28498778       1.51296607       0.00000000
Si       2.01908034       0.73733427       2.44489254       0.00000000
Si       0.18536391      -2.49386868       2.73042318       0.00000000
Si      -2.69539227      -2.71648782      -0.00428622       0.00000000
Si       2.71464705       2.71673217      -0.02280268       0.00000000
Si      -2.72204271       2.71220355       0.00157733       0.00000000
Si      -2.70099603      -0.01058850      -2.74074439       0.00000000
