10
Lattice="16.28999089631971 0.0 0.0 0.0 16.28999089631971 0.0 0.0 0.0 34.28971787722196" Properties=species:S:1:pos:R:3:initial_magmoms:R:1 pbc="T T T"
Si       1.35692442       1.35767376       1.35667345       0.00000000
Si       1.35690813      -1.35747828      -1.35756498       0.00000000
Si      -1.35811359       1.35754344      -1.35773643       0.00000000
Si      -1.35898022      -1.35829278       1.35646771       0.00000000
Si       2.71440270      -2.71443528      -0.00048006       0.00000000
Si       2.71391400      -0.00009774      -2.71502709       0.00000000
Si       0.00219915      -2.71217097       2.71708447       0.00000000
Si      -0.00128691       2.71318095      -2.71612436       0.00000000
Si      -2.71462886       0.00268785      -2.71482135       0.00000000
Si       2.71454931       2.71500543      -0.00054864       0.00000000
