10
Lattice="16.28999089631971 0.0 0.0 0.0 16.28999089631971 0.0 0.0 0.0 34.28971787722196" Properties=species:S:1:pos:R:3:initial_magmoms:R:1 pbc="T T T"
Si      -1.35667508      -1.35640314      -1.35657058       0.00000000
Si       1.35898022       1.35829278      -1.35646771       0.00000000
Si      -1.35528057       1.35829278       1.36061677       0.00000000
Si       1.36117937      -1.35387819       1.36061677       0.00000000
Si      -2.71383648       0.00130320      -2.71461561       0.00000000
Si       0.00136184      -2.71412251      -2.71461561       0.00000000
Si      -2.71484646      -2.71464705      -0.00030861       0.00000000
Si       2.71414532      -2.71546318      -0.00006858       0.00000000
Si      -2.71385277       2.71581993       0.00037719       0.00000000
Si       2.71588835       0.00081450      -2.71403269       0.00000000
