10
Lattice="16.28999089631971 0.0 0.0 0.0 16.28999089631971 0.0 0.0 0.0 34.28971787722196" Properties=species:S:1:pos:R:3:initial_magmoms:R:1 pbc="T T T"
Si      -0.69265080       1.04889681      -1.94830857       0.00000000
Si      -1.61331273      -1.47771477       0.84657932       0.00000000
Si       1.68349005      -1.55916477      -0.76860446       0.00000000
Si       0.05281218       1.74288339       1.71146936       0.00000000
Si       2.87529903      -1.45562553       1.29886095       0.00000000
Si      -0.63803043      -2.14667991       2.85283754       0.00000000
Si       1.28225106       2.05788312      -2.76320417       0.00000000
Si      -0.96412365       3.60721266       0.45677359       0.00000000
Si      -1.84783986      -3.29119902      -0.65188219       0.00000000
Si      -2.25691434       2.74975200      -1.48515709       0.00000000
