10
Lattice="16.28999089631971 0.0 0.0 0.0 16.28999089631971 0.0 0.0 0.0 34.28971787722196" Properties=species:S:1:pos:R:3:initial_magmoms:R:1 pbc="T T T"
Si       1.35817453       1.33970589       1.38016192       0.00000000
Si      -1.35550719      -1.37490206       1.37745303       0.00000000
Si       1.36558160      -1.38898803      -1.36973441       0.00000000
Si      -1.26167679       1.44726876      -1.57795541       0.00000000
Si      -0.20074167      -2.63250326      -2.61745084       0.00000000
Si      -2.68351686       2.69130348       0.01480288       0.00000000
Si       2.70028646       2.71469592       0.01662024       0.00000000
Si       0.00194760       2.70158247       2.74098442       0.00000000
Si      -2.72117934      -2.73352822       0.01114759       0.00000000
Si      -2.71458189      -0.01692531       2.74016147       0.00000000
