10
Lattice="16.28999089631971 0.0 0.0 0.0 16.28999089631971 0.0 0.0 0.0 34.28971787722196" Properties=species:S:1:pos:R:3:initial_magmoms:R:1 pbc="T T T"
Si       1.01169045       1.73894121      -1.29459672       0.00000000
Si       1.31517315      -1.38484654       1.44352592       0.00000000
Si      -1.39214340       1.31103549       1.44862138       0.00000000
Si      -1.20599757      -1.54001492      -1.47763533       0.00000000
Si      -0.90554481       0.11386710      -3.27746934       0.00000000
Si      -2.64381813       2.67333561       0.01262205       0.00000000
Si       2.56688046      -2.84930738       0.04783761       0.00000000
Si      -0.70354881       3.54784797      -1.36986269       0.00000000
Si       2.68084530      -0.02622038       2.80983135       0.00000000
Si      -0.03562623       2.68923465       2.81151155       0.00000000
