10
Lattice="16.28999089631971 0.0 0.0 0.0 16.28999089631971 0.0 0.0 0.0 34.28971787722196" Properties=species:S:1:pos:R:3:initial_magmoms:R:1 pbc="T T T"
Si      -1.76298525      -1.05700923      -1.14901964       0.00000000
Si       1.35434622       1.41921738      -1.42450339       0.00000000
Si      -1.42184007       1.24403472       1.59275829       0.00000000
Si       1.26167679      -1.44726876       1.57795541       0.00000000
Si       2.55765447       2.64710871       0.20725060       0.00000000
Si      -3.47822451       0.75189753      -1.22428561       0.00000000
Si      -2.69312796       2.67294465       0.30596389       0.00000000
Si       2.62725839      -2.83625679       0.20822100       0.00000000
Si      -2.77467570      -2.79595044       0.14557708       0.00000000
Si      -0.09695808       2.60781723       2.96247212       0.00000000
