10
Lattice="16.28999089631971 0.0 0.0 0.0 16.28999089631971 0.0 0.0 0.0 34.28971787722196" Properties=species:S:1:pos:R:3:initial_magmoms:R:1 pbc="T T T"
Si      -1.68629193      -1.63400103       0.27613525       0.00000000
Si       2.04843722      -1.12052394      -0.62150148       0.00000000
Si       0.19455147       1.22523606       2.08581041       0.00000000
Si       1.89676429       2.67709860       1.35331305       0.00000000
Si       0.91898066       0.08035857      -3.52721380       0.00000000
Si      -0.77639769      -3.22760286       1.72271639       0.00000000
Si      -3.47889240      -0.49371732       1.34868394       0.00000000
Si       1.11922141      -0.44525457       3.57854554       0.00000000
Si      -2.91770190      -2.16647226      -1.62571072       0.00000000
Si       3.94829594       0.29147697      -0.64934475       0.00000000
