10
Lattice="16.28999089631971 0.0 0.0 0.0 16.28999089631971 0.0 0.0 0.0 34.28971787722196" Properties=species:S:1:pos:R:3:initial_magmoms:R:1 pbc="T T T"
Si      -1.84244787       0.78561783       1.24094558       0.00000000
Si       1.08789069      -1.83790296       0.99621973       0.00000000
Si      -1.43405757      -0.18604809      -1.87873469       0.00000000
Si       0.71575002       2.35540368      -0.46551747       0.00000000
Si      -1.26048762       2.13312663      -1.95101746       0.00000000
Si       2.39536861      -1.76524956      -1.17133742       0.00000000
Si      -3.26997315      -0.45822141      -0.24575455       0.00000000
Si      -0.39306141       2.02851225       2.66320642       0.00000000
Si       2.29119894      -0.61001163       2.62797372       0.00000000
Si       3.51745802       0.89420697       1.35624246       0.00000000
