10
Lattice="16.28999089631971 0.0 0.0 0.0 16.28999089631971 0.0 0.0 0.0 34.28971787722196" Properties=species:S:1:pos:R:3:initial_magmoms:R:1 pbc="T T T"
Si       1.35551808      -1.35876519       1.35924518       0.00000000
Si      -1.35799956       1.35855342       1.35903944       0.00000000
Si       1.35319401       1.36793646      -1.35999612       0.00000000
Si      -1.36627488      -1.37028222      -1.36516358       0.00000000
Si      -0.11334582       2.60519454      -2.76559416       0.00000000
Si      -2.71590138      -2.70979263       0.00270889       0.00000000
Si       2.71519832      -2.71345788      -0.00229741       0.00000000
Si       2.71436265       2.71500543       0.00264031       0.00000000
Si      -0.00016290       2.71459818       2.71657013       0.00000000
Si       2.71433007      -0.00013032       2.71694731       0.00000000
