10
Lattice="16.28999089631971 0.0 0.0 0.0 16.28999089631971 0.0 0.0 0.0 34.28971787722196" Properties=species:S:1:pos:R:3:initial_magmoms:R:1 pbc="T T T"
Si       1.89985872       1.41200091      -0.02784327       0.00000000
Si      -0.17575770      -1.43166294      -1.87708879       0.00000000
Si      -2.04843722       1.12052394       0.62150148       0.00000000
Si       0.83990100      -1.40841711       1.84540507       0.00000000
Si      -1.12945656       1.20088251      -2.90571232       0.00000000
Si      -0.82969205      -3.09477420       1.55476526       0.00000000
Si       3.54387810      -0.25427061      -0.31471121       0.00000000
Si       1.74857349       2.32396398       2.14739478       0.00000000
Si       1.25301540       0.30516057       3.40342785       0.00000000
Si      -0.51068010      -3.51693607      -0.81369546       0.00000000
