10
Lattice="16.28999089631971 0.0 0.0 0.0 16.28999089631971 0.0 0.0 0.0 34.28971787722196" Properties=species:S:1:pos:R:3:initial_magmoms:R:1 pbc="T T T"
Si      -1.24356231       1.33558452      -1.44839849       0.00000000
Si       1.54115033       0.99466740       1.52129847       0.00000000
Si       1.46896771      -1.39248549      -1.41544606       0.00000000
Si      -1.86017139      -0.89016705       1.45052446       0.00000000
Si       2.47093955      -1.09753875       2.25825350       0.00000000
Si       2.69243468       2.52594369       0.03425545       0.00000000
Si       0.24292937      -2.16937188       2.97940096       0.00000000
Si      -2.64789063       2.68680744      -0.11559070       0.00000000
Si      -2.58771537      -0.03705975      -2.80308313       0.00000000
Si       0.09160113       1.37112930       3.56788143       0.00000000
