10
Lattice="16.28999089631971 0.0 0.0 0.0 16.28999089631971 0.0 0.0 0.0 34.28971787722196" Properties=species:S:1:pos:R:3:initial_magmoms:R:1 pbc="T T T"
Si      -1.69543062      -0.89280603       1.47668753       0.00000000
Si       0.66541392       2.27880810       0.48046780       0.00000000
Si       1.86040827      -1.37634210      -0.88999012       0.00000000
Si      -1.24888914       0.77138037      -2.04730304       0.00000000
Si       1.67517142      -0.85144572       2.23867406       0.00000000
Si      -2.08109637       1.05552684       2.76642740       0.00000000
Si       0.53269929       0.58872060      -3.53756930       0.00000000
Si       2.59774091       2.42921367      -0.84191591       0.00000000
Si       3.55181363       0.26536410      -1.10124919       0.00000000
Si      -2.91268458      -0.92172078      -2.15360122       0.00000000
