10
Lattice="16.28999089631971 0.0 0.0 0.0 16.28999089631971 0.0 0.0 0.0 34.28971787722196" Properties=species:S:1:pos:R:3:initial_magmoms:R:1 pbc="T T T"
Si      -1.68366924      -1.65042135       0.12361450       0.00000000
Si       1.81586259      -1.25323857      -1.05015749       0.00000000
Si       0.09171270       0.14325426       2.45689395       0.00000000
Si      -0.68149215       1.97951193      -1.32289806       0.00000000
Si       2.68910989       2.02087224      -0.56091152       0.00000000
Si      -3.65057271      -0.35707680      -0.02125964       0.00000000
Si       3.12229194       1.22922711       1.58415156       0.00000000
Si       2.26178505      -0.46312470       2.94651710       0.00000000
Si      -1.85758128      -2.97219195      -1.78728396       0.00000000
Si       3.51807541       0.19862397      -1.78265485       0.00000000
