10
Lattice="16.28999089631971 0.0 0.0 0.0 16.28999089631971 0.0 0.0 0.0 34.28971787722196" Properties=species:S:1:pos:R:3:initial_magmoms:R:1 pbc="T T T"
Si      -1.35436689       1.35520936       1.35855938       0.00000000
Si       1.36024758      -1.35716877       1.35735924       0.00000000
Si       1.35319401       1.35393319      -1.37158605       0.00000000
Si      -1.34377839      -1.35216774      -1.38446528       0.00000000
Si       2.60490132      -0.11052765      -2.76727436       0.00000000
Si      -2.71116099       2.71627672       0.00030861       0.00000000
Si      -2.70901071      -2.71842633      -0.00017145       0.00000000
Si      -2.71210581      -0.00060273       2.71588433       0.00000000
Si       0.00232947       2.71392119       2.71512996       0.00000000
Si       0.00232947      -2.71596654       2.71509567       0.00000000
