10
Lattice="16.28999089631971 0.0 0.0 0.0 16.28999089631971 0.0 0.0 0.0 34.28971787722196" Properties=species:S:1:pos:R:3:initial_magmoms:R:1 pbc="T T T"
Si      -1.35718506       1.35796698       1.35749640       0.00000000
Si       1.35812988      -1.35733167       1.35735924       0.00000000
Si      -1.35814617      -1.35817875      -1.35684489       0.00000000
Si       1.35791811       1.35879777      -1.35773643       0.00000000
Si       0.00001629      -2.70954828      -2.71406698       0.00000000
Si      -2.71134018      -0.00245979      -2.71526712       0.00000000
Si       2.71461447      -0.00185706       2.71344976       0.00000000
Si      -0.00001629       2.71448415       2.71386124       0.00000000
Si      -2.71437012      -0.00083079       2.71440987       0.00000000
Si      -2.71463076      -2.71433754       0.00041148       0.00000000
