10
Lattice="16.28999089631971 0.0 0.0 0.0 16.28999089631971 0.0 0.0 0.0 34.28971787722196" Properties=species:S:1:pos:R:3:initial_magmoms:R:1 pbc="T T T"
Si      -1.35330804      -1.35449721      -1.39031168       0.00000000
Si       1.35929864       1.35979184      -1.38804856       0.00000000
Si       1.37246150      -1.44142065       1.35862796       0.00000000
Si      -1.52735040       1.18736181       1.58271139       0.00000000
Si      -0.33389613      -2.48008734       2.60447698       0.00000000
Si      -2.71666701       2.70700608       0.00644647       0.00000000
Si       2.72809349       2.69939865      -0.00253744       0.00000000
Si      -2.72363913      -2.70544320      -0.03209519       0.00000000
Si      -2.71024875      -0.00140094      -2.75147708       0.00000000
Si       0.00456120       2.71349765      -2.75120276       0.00000000
