10
Lattice="16.28999089631971 0.0 0.0 0.0 16.28999089631971 0.0 0.0 0.0 34.28971787722196" Properties=species:S:1:pos:R:3:initial_magmoms:R:1 pbc="T T T"
Si      -1.17213066       1.93149945      -0.67914253       0.00000000
Si      -1.20335859      -1.82493612      -0.90295165       0.00000000
Si       0.38696895      -0.64804878       2.24570346       0.00000000
Si       2.01982968       0.25700733      -1.30894213       0.00000000
Si      -2.79979488      -1.94735547       1.02145698       0.00000000
Si      -3.10176261       1.70388743       0.57949656       0.00000000
Si      -0.07011216       1.24057539       3.58084295       0.00000000
Si       0.16992099      -3.82666761      -0.25292110       0.00000000
Si      -1.47134538      -1.84425606       3.02984116       0.00000000
Si       2.08422405      -2.31923988       2.27484973       0.00000000
