10
Lattice="16.28999089631971 0.0 0.0 0.0 16.28999089631971 0.0 0.0 0.0 34.28971787722196" Properties=species:S:1:pos:R:3:initial_magmoms:R:1 pbc="T T T"
Si      -2.01982968      -0.25700733       1.30894213       0.00000000
Si       1.14775986      -2.16235089      -0.12628910       0.00000000
Si       1.54411022       1.44668299       1.33174481       0.00000000
Si      -0.73619397       1.28957897      -2.02847797       0.00000000
Si      -3.19196034       1.67449212       0.62979960       0.00000000
Si      -2.05801344       2.98638773      -0.98363540       0.00000000
Si       2.50553951      -1.86313617      -2.19152567       0.00000000
Si      -3.22318827      -2.08194345       0.40599049       0.00000000
Si       1.99672136      -2.42584164       2.26140816       0.00000000
Si       1.87903262       3.53195612       0.26835148       0.00000000
