10
Lattice="16.28999089631971 0.0 0.0 0.0 16.28999089631971 0.0 0.0 0.0 34.28971787722196" Properties=species:S:1:pos:R:3:initial_magmoms:R:1 pbc="T T T"
Si       1.11464325      -1.52059005       1.41654333       0.00000000
Si      -0.64583334       1.80335187       1.39254051       0.00000000
Si       1.78887888       0.88205463      -1.31435991       0.00000000
Si      -2.05482060      -0.78296256      -1.03657875       0.00000000
Si       0.69168969       0.44031870      -3.32253836       0.00000000
Si       1.70144719      -2.68993512      -1.56433209       0.00000000
Si       3.07068848      -0.31412007       1.89663394       0.00000000
Si      -0.58764546      -2.53477287       2.65608303       0.00000000
Si       3.34541933      -0.96549201      -1.44740409       0.00000000
Si      -2.11462119       3.17045371       0.14442837       0.00000000
