10
Lattice="16.28999089631971 0.0 0.0 0.0 16.28999089631971 0.0 0.0 0.0 34.28971787722196" Properties=species:S:1:pos:R:3:initial_magmoms:R:1 pbc="T T T"
Si      -1.46878785       1.36710184      -1.24811214       0.00000000
Si       0.64583334      -1.80335187      -1.39254051       0.00000000
Si       1.79460414       1.51282577       0.38857130       0.00000000
Si      -0.85305843      -0.75901626       2.15641298       0.00000000
Si      -1.74879666      -2.89779552       1.48529425       0.00000000
Si      -1.84808421       3.20320763       0.16177898       0.00000000
Si       2.43471222      -0.92129724      -2.70690042       0.00000000
Si       1.76047659      -3.32394192       0.02400282       0.00000000
Si      -1.40898726      -2.58631443      -2.42911926       0.00000000
Si       1.50662952       2.45633719       2.54628729       0.00000000
