10
Lattice="16.28999089631971 0.0 0.0 0.0 16.28999089631971 0.0 0.0 0.0 34.28971787722196" Properties=species:S:1:pos:R:3:initial_magmoms:R:1 pbc="T T T"
Si      -1.08789069       1.83790296      -0.99621973       0.00000000
Si       1.20330825       1.22789133       1.63175399       0.00000000
Si      -1.35434622      -1.41921738       1.42450339       0.00000000
Si       1.30747792       0.07265340      -2.16755715       0.00000000
Si       2.43689783      -1.99332585      -1.61573241       0.00000000
Si       2.42956733       2.73210993       0.36002273       0.00000000
Si       3.09972164       1.54678437      -1.50415360       0.00000000
Si      -2.93033856       2.62352079       0.24472585       0.00000000
Si      -0.09639984       2.54907549       3.03639192       0.00000000
Si      -3.11733147      -2.47622661       0.27548375       0.00000000
