10
Lattice="16.28999089631971 0.0 0.0 0.0 16.28999089631971 0.0 0.0 0.0 34.28971787722196" Properties=species:S:1:pos:R:3:initial_magmoms:R:1 pbc="T T T"
Si       0.48538319       0.35359074       2.38512553       0.00000000
Si      -0.84232578       2.31865344      -0.26245365       0.00000000
Si       1.44954920      -0.37646190      -2.04658296       0.00000000
Si      -2.47029951      -0.94962555       0.02732892       0.00000000
Si       0.15132824      -3.54050118      -0.58848047       0.00000000
Si      -1.95177252      -2.26129635      -2.11735697       0.00000000
Si       2.17678855       1.99529694       2.17386646       0.00000000
Si       2.37933841      -2.46866805      -1.30962793       0.00000000
Si      -0.09160113      -1.37112930      -3.56788143       0.00000000
Si      -2.62391421       2.50131321       1.22781261       0.00000000
