10
Lattice="16.28999089631971 0.0 0.0 0.0 16.28999089631971 0.0 0.0 0.0 34.28971787722196" Properties=species:S:1:pos:R:3:initial_magmoms:R:1 pbc="T T T"
Si       1.27527894      -0.27289008       1.90894395       0.00000000
Si       1.65566673      -0.46024137      -1.60311379       0.00000000
Si      -1.64397214      -1.72444311      -0.11692800       0.00000000
Si      -1.55654045       1.84754664       0.13304418       0.00000000
Si      -0.27473085       0.65137194       3.34403803       0.00000000
Si      -1.21079009      -2.51608824       2.02813508       0.00000000
Si       0.23267007      -0.60763329      -3.45685126       0.00000000
Si      -2.65372964       1.40581071      -1.87513427       0.00000000
Si      -0.72140265       1.55621628      -3.19751798       0.00000000
Si      -2.23077608      -0.55509804       2.86394742       0.00000000
