10
Lattice="16.28999089631971 0.0 0.0 0.0 16.28999089631971 0.0 0.0 0.0 34.28971787722196" Properties=species:S:1:pos:R:3:initial_magmoms:R:1 pbc="T T T"
Si       2.23665284       0.04466718       0.61786677       0.00000000
Si      -0.43318205       0.79164513      -2.14506308       0.00000000
Si      -0.86050689      -1.69235181       1.36236554       0.00000000
Si      -1.01998599       1.96099020       0.83581234       0.00000000
Si      -3.03057924      -1.08597285       0.87274239       0.00000000
Si       2.48606903       2.24319816      -0.11919113       0.00000000
Si       1.69478228      -0.11329695       2.92083409       0.00000000
Si       1.21079009       2.51608824      -2.02813508       0.00000000
Si       0.39578347      -1.03060314      -3.36680641       0.00000000
Si      -2.72227470       0.94680738       2.07535204       0.00000000
