10
Lattice="16.28999089631971 0.0 0.0 0.0 16.28999089631971 0.0 0.0 0.0 34.28971787722196" Properties=species:S:1:pos:R:3:initial_magmoms:R:1 pbc="T T T"
Si      -1.36676195      -1.34117199       1.37476128       0.00000000
Si       1.34669430       1.37509496       1.37328682       0.00000000
Si      -1.35941679       1.35801815      -1.37866688       0.00000000
Si       1.47965328      -1.25952651      -1.49777914       0.00000000
Si       0.38929842       2.38994567      -2.61907343       0.00000000
Si       2.28032307       0.62800949      -2.84481173       0.00000000
Si      -0.09448200      -2.54226627      -2.82766686       0.00000000
Si       2.70591561      -2.69187363      -0.00067894       0.00000000
Si      -2.72793059      -2.68824096       0.01212485       0.00000000
Si      -0.96495444      -0.53989947      -3.67506913       0.00000000
