10
Lattice="16.28999089631971 0.0 0.0 0.0 16.28999089631971 0.0 0.0 0.0 34.28971787722196" Properties=species:S:1:pos:R:3:initial_magmoms:R:1 pbc="T T T"
Si       1.34255664       1.34495127       1.38379663       0.00000000
Si       1.35296595      -1.36158499      -1.36068535       0.00000000
Si      -1.36117937       1.35387819      -1.36061677       0.00000000
Si      -1.35249354      -1.37486786       1.38773995       0.00000000
Si       2.71075374       2.71399545       0.00130301       0.00000000
Si      -2.71645994       2.71217097       0.00000000       0.00000000
Si      -0.00219915       2.71217097      -2.71708447       0.00000000
Si       2.71220355      -0.00226431      -2.71756453       0.00000000
Si       2.71178001      -2.72006593       0.00298321       0.00000000
Si      -2.71785445      -0.00252495      -2.71718734       0.00000000
