10
Lattice="16.28999089631971 0.0 0.0 0.0 16.28999089631971 0.0 0.0 0.0 34.28971787722196" Properties=species:S:1:pos:R:3:initial_magmoms:R:1 pbc="T T T"
Si       1.34983827       1.34480466       1.36528017       0.00000000
Si       1.35226548      -1.35912357      -1.35708492       0.00000000
Si      -1.36292403       1.35418770      -1.35598765       0.00000000
Si      -1.36131783      -1.38823380       1.36023958       0.00000000
Si       2.50826904      -0.10321344       2.84872277       0.00000000
Si      -0.00029322       2.57592141       2.83637847       0.00000000
Si       2.71112841       2.71192320       0.00613786       0.00000000
Si       2.71107954      -0.00047241      -2.71406698       0.00000000
Si       2.71256193      -2.71269225       0.00452625       0.00000000
Si      -0.00337203       2.71405185      -2.71440987       0.00000000
