10
Lattice="16.28999089631971 0.0 0.0 0.0 16.28999089631971 0.0 0.0 0.0 34.28971787722196" Properties=species:S:1:pos:R:3:initial_magmoms:R:1 pbc="T T T"
Si       0.34136835       0.93081942       2.06647100       0.00000000
Si      -0.96933875       1.83479061      -1.05012320       0.00000000
Si      -1.55033789      -1.75831002       0.20570413       0.00000000
Si       2.05039461       0.10280619      -1.16550816       0.00000000
Si      -0.68138042       0.89125606      -3.20787348       0.00000000
Si       1.61196555       2.76875333       1.46087996       0.00000000
Si       0.71543399       3.40684892      -0.64790458       0.00000000
Si       1.35531660      -0.42666768      -3.31554325       0.00000000
Si      -1.83691157       0.98469696       3.02761233       0.00000000
Si      -0.11166143      -3.67222212       0.16935701       0.00000000
