10
Lattice="16.28999089631971 0.0 0.0 0.0 16.28999089631971 0.0 0.0 0.0 34.28971787722196" Properties=species:S:1:pos:R:3:initial_magmoms:R:1 pbc="T T T"
Si       0.82021779       0.65774133      -2.09199872       0.00000000
Si       1.99117557       0.65067147       1.15821714       0.00000000
Si      -1.87563060       1.54034982      -0.11879580       0.00000000
Si      -0.83038275      -2.02468410       1.14394575       0.00000000
Si       0.54573129       2.02859370       2.57656067       0.00000000
Si      -2.09230389      -1.48581090      -2.29022769       0.00000000
Si      -2.18595510      -0.69273225       2.60193508       0.00000000
Si       0.00377928      -1.19366604      -3.31384492       0.00000000
Si      -0.91489527       3.32369757       1.14769019       0.00000000
Si      -2.85089661       0.96443316      -2.32266578       0.00000000
