10
Lattice="16.28999089631971 0.0 0.0 0.0 16.28999089631971 0.0 0.0 0.0 34.28971787722196" Properties=species:S:1:pos:R:3:initial_magmoms:R:1 pbc="T T T"
Si       1.35633798       1.35778779       1.35780844       0.00000000
Si      -1.36089918      -1.35333247       1.35821991       0.00000000
Si      -1.38344454       1.35834165      -1.35447204       0.00000000
Si       1.35557235      -1.33195185      -1.45798933       0.00000000
Si       2.18595510       0.69273225      -2.60193508       0.00000000
Si      -2.31839280      -0.33863652      -2.63417669       0.00000000
Si       0.31032450       2.23308207      -2.72073088       0.00000000
Si      -0.42727041      -2.10029088      -2.85981006       0.00000000
Si       2.70138699      -2.69983034      -0.00793807       0.00000000
Si       2.71195920       0.00281817       2.71640211       0.00000000
