10
Lattice="16.28999089631971 0.0 0.0 0.0 16.28999089631971 0.0 0.0 0.0 34.28971787722196" Properties=species:S:1:pos:R:3:initial_magmoms:R:1 pbc="T T T"
Si      -1.78284276      -0.76833903      -1.40182072       0.00000000
Si      -1.35557235       1.33195185       1.45798933       0.00000000
Si       1.34581464      -1.36787849       1.45005126       0.00000000
Si       0.83038275       2.02468410      -1.14394575       0.00000000
Si      -1.26192114       0.53887320      -3.43417344       0.00000000
Si      -2.58362658      -2.65605911      -0.05480872       0.00000000
Si       2.63122596      -2.73876344       0.03920346       0.00000000
Si      -2.73901689       2.69029350       0.10351729       0.00000000
Si       2.82155832       2.67535557       0.01427139       0.00000000
Si       0.00076563       2.68973964       2.81579777       0.00000000
