10
Lattice="16.28999089631971 0.0 0.0 0.0 16.28999089631971 0.0 0.0 0.0 34.28971787722196" Properties=species:S:1:pos:R:3:initial_magmoms:R:1 pbc="T T T"
Si       1.34364807       1.33631431      -1.37872175       0.00000000
Si       1.40631570      -1.37549355       1.31182247       0.00000000
Si      -1.36945143      -1.38516546      -1.37121229       0.00000000
Si      -1.29609756       1.41826930       1.50494227       0.00000000
Si      -0.42567399      -2.36820177       2.35738513       0.00000000
Si      -2.04410178      -0.56154399       2.66078073       0.00000000
Si       2.68568343       2.68481680       0.01861933       0.00000000
Si      -2.73799062       2.67950626       0.00774948       0.00000000
Si      -0.01127268       2.68721143      -2.73512088       0.00000000
Si       2.70205488      -0.02540588      -2.73518945       0.00000000
