10
Lattice="16.28999089631971 0.0 0.0 0.0 16.28999089631971 0.0 0.0 0.0 34.28971787722196" Properties=species:S:1:pos:R:3:initial_magmoms:R:1 pbc="T T T"
Si      -0.74800422      -1.97981329       1.15583846       0.00000000
Si      -1.44189306       1.26123696      -1.49719279       0.00000000
Si       1.29609756      -1.41826930      -1.50494227       0.00000000
Si       0.79457733       1.82167812       1.44088904       0.00000000
Si       2.64492585       2.74406679       0.02636881       0.00000000
Si      -1.06016949       3.49604577       1.15786155       0.00000000
Si       2.70241326      -2.79376286      -0.19311980       0.00000000
Si      -0.07442901       2.63085129      -2.87773189       0.00000000
Si       2.63974563      -0.08195499      -2.88366402       0.00000000
Si      -2.99040417       2.52503145       0.06761936       0.00000000
