10
Lattice="16.28999089631971 0.0 0.0 0.0 16.28999089631971 0.0 0.0 0.0 34.28971787722196" Properties=species:S:1:pos:R:3:initial_magmoms:R:1 pbc="T T T"
Si       1.72817352       1.60466274       0.36799746       0.00000000
Si      -2.36434689       0.55682478      -0.09450252       0.00000000
Si      -0.09006741      -0.67862511      -2.34161185       0.00000000
Si       0.49547664      -1.38034944       2.04404551       0.00000000
Si       1.52868618      -2.37124408      -2.45425364       0.00000000
Si      -0.41650272      -3.48366537       1.29560342       0.00000000
Si       1.04239710       2.93967711       2.16947737       0.00000000
Si      -3.49687656      -1.56643011       0.23375314       0.00000000
Si       2.40174873       2.59147836      -1.68390041       0.00000000
Si      -2.91320586       2.42629776       1.24166567       0.00000000
