10
Lattice="16.28999089631971 0.0 0.0 0.0 16.28999089631971 0.0 0.0 0.0 34.28971787722196" Properties=species:S:1:pos:R:3:initial_magmoms:R:1 pbc="T T T"
Si       2.28745809       0.21308949      -0.60956866       0.00000000
Si      -1.19045691       2.08948572       0.19325696       0.00000000
Si      -0.36048141      -1.04151744       2.17287206       0.00000000
Si      -1.29109653      -0.89479341      -1.90630364       0.00000000
Si      -3.22884090      -0.77646285      -0.42526132       0.00000000
Si       0.45595710       0.80988993       3.39471826       0.00000000
Si       0.63957798      -2.45594393      -2.56998150       0.00000000
Si       2.00551077       1.14541506      -2.80994108       0.00000000
Si      -0.24997005       2.85298173       2.24594349       0.00000000
Si      -3.32584785       1.29813381       0.74137840       0.00000000
