10
Lattice="16.28999089631971 0.0 0.0 0.0 16.28999089631971 0.0 0.0 0.0 34.28971787722196" Properties=species:S:1:pos:R:3:initial_magmoms:R:1 pbc="T T T"
Si      -1.93355784      -0.79952949      -1.00657523       0.00000000
Si      -0.53670663      -1.37764856       1.86351005       0.00000000
Si      -0.09700695       2.07459666       1.16663972       0.00000000
Si       1.93774437      -0.11833056      -1.48104232       0.00000000
Si       1.02576501      -2.22164649      -2.22948441       0.00000000
Si       3.22884090       0.77646285       0.42526132       0.00000000
Si       2.03838399       2.86594857       0.61851828       0.00000000
Si      -2.74548402      -0.45423036       2.26943196       0.00000000
Si      -3.64201557       0.18386523       0.16064742       0.00000000
Si       0.77227632      -0.55719945       3.62175061       0.00000000
