10
Lattice="16.28999089631971 0.0 0.0 0.0 16.28999089631971 0.0 0.0 0.0 34.28971787722196" Properties=species:S:1:pos:R:3:initial_magmoms:R:1 pbc="T T T"
Si      -0.34909470      -2.12620338      -0.90164864       0.00000000
Si       0.99033426       1.25361324      -1.75186267       0.00000000
Si      -1.88371044       1.20047526       0.80731757       0.00000000
Si       1.77847704      -0.53980173       1.47891636       0.00000000
Si       1.82581578      -2.41393365      -1.82692290       0.00000000
Si       3.16824210       1.66379544      -0.83018882       0.00000000
Si      -1.42524468       3.40661367      -0.03590135       0.00000000
Si       3.00648240      -2.24520183       0.21331645       0.00000000
Si      -3.82376799       0.26321382      -0.10725830       0.00000000
Si      -0.30680586       3.15442818      -2.23404495       0.00000000
