10
Lattice="16.28999089631971 0.0 0.0 0.0 16.28999089631971 0.0 0.0 0.0 34.28971787722196" Properties=species:S:1:pos:R:3:initial_magmoms:R:1 pbc="T T T"
Si      -1.45060821       1.71833436       0.55261340       0.00000000
Si       1.80649584       0.68499450       1.34703803       0.00000000
Si       0.54753948       0.10689498      -2.34617239       0.00000000
Si      -1.10522763      -1.79856261       1.25099248       0.00000000
Si      -1.39251807      -0.83036646      -3.26074825       0.00000000
Si      -0.55636866      -3.66803559      -0.08517571       0.00000000
Si       2.85037533      -1.28518326       2.17880418       0.00000000
Si      -1.99247877       1.56035394       2.85558072       0.00000000
Si      -1.88758746      -2.84967486      -2.00365220       0.00000000
Si       1.24991541       1.71369171       3.40689111       0.00000000
