10
Lattice="16.28999089631971 0.0 0.0 0.0 16.28999089631971 0.0 0.0 0.0 34.28971787722196" Properties=species:S:1:pos:R:3:initial_magmoms:R:1 pbc="T T T"
Si      -1.36018242       1.35351981      -1.36140543       0.00000000
Si       1.33613838       1.36001952       1.38084771       0.00000000
Si       1.35723393      -1.36137159      -1.36051390       0.00000000
Si      -1.36697535      -1.36228383       1.37738445       0.00000000
Si       2.47691079      -0.06514371       2.89425954       0.00000000
Si      -2.71241532       2.71265967      -0.00432051       0.00000000
Si      -0.00135207       2.71218726      -2.71838748       0.00000000
Si       2.71580364       2.71521720      -0.00202309       0.00000000
Si       2.71401174      -0.00275301      -2.71866180       0.00000000
Si      -2.71388142      -2.71927341       0.00192023       0.00000000
