10
Lattice="16.28999089631971 0.0 0.0 0.0 16.28999089631971 0.0 0.0 0.0 34.28971787722196" Properties=species:S:1:pos:R:3:initial_magmoms:R:1 pbc="T T T"
Si       1.17661041       1.90676079      -0.57126702       0.00000000
Si      -2.13358275       0.25073568      -0.95016861       0.00000000
Si       1.21270905      -1.68355521      -1.10817572       0.00000000
Si       0.44463555      -0.91039923       2.54128099       0.00000000
Si       1.96713153      -2.70356985       0.83906987       0.00000000
Si      -1.57700232      -0.77796153      -3.01002170       0.00000000
Si      -0.53312283      -2.74813929      -2.17825555       0.00000000
Si       0.77843394       3.26318022       1.25997639       0.00000000
Si       0.20136069       2.57575851      -2.57752524       0.00000000
Si       3.39931575       1.20677949      -0.75622586       0.00000000
