10
Lattice="16.28999089631971 0.0 0.0 0.0 16.28999089631971 0.0 0.0 0.0 34.28971787722196" Properties=species:S:1:pos:R:3:initial_magmoms:R:1 pbc="T T T"
Si       0.12105099      -0.49511826       2.28475947       0.00000000
Si      -2.23066952      -0.48856968      -0.69964779       0.00000000
Si       0.93651210      -2.19387923      -0.18043260       0.00000000
Si       1.13252967       2.12325489      -0.32825565       0.00000000
Si       0.59017041      -2.19694175      -2.69699069       0.00000000
Si      -0.94752414      -3.34524014       0.78434345       0.00000000
Si       1.36249560      -0.05116689      -3.37452160       0.00000000
Si      -1.78103946      -2.08867692      -2.43086804       0.00000000
Si      -0.19868913       2.94161562      -2.24673215       0.00000000
Si      -2.98422116      -2.02731640       0.89201322       0.00000000
