10
Lattice="16.28999089631971 0.0 0.0 0.0 16.28999089631971 0.0 0.0 0.0 34.28971787722196" Properties=species:S:1:pos:R:3:initial_magmoms:R:1 pbc="T T T"
Si       1.36404315       1.32585939       1.36517730       0.00000000
Si      -1.35969372       1.35340578      -1.35948520       0.00000000
Si       1.35612621      -1.36158336      -1.36034245       0.00000000
Si      -1.37966526      -1.35519768       1.38287081       0.00000000
Si       0.05864400       2.71902468       2.68690950       0.00000000
Si       2.70871749      -2.71456560      -0.00068579       0.00000000
Si      -2.71712313       2.70935277       0.00387474       0.00000000
Si      -0.00149868       2.71215482      -2.71622723       0.00000000
Si       2.71692765       2.71245298       0.00089153       0.00000000
Si       2.71303434      -0.00280188      -2.71663871       0.00000000
