10
Lattice="16.28999089631971 0.0 0.0 0.0 16.28999089631971 0.0 0.0 0.0 34.28971787722196" Properties=species:S:1:pos:R:3:initial_magmoms:R:1 pbc="T T T"
Si      -1.35223290       1.35913986       1.35708492       0.00000000
Si      -1.35575154      -1.35645201      -1.35749640       0.00000000
Si       1.35883035       1.35866745      -1.35698205       0.00000000
Si       1.36018242      -1.35351981       1.36140543       0.00000000
Si      -0.00244350       2.70386307       2.72239938       0.00000000
Si      -2.71347417       0.00109143      -2.71464990       0.00000000
Si       0.00154755      -2.71386513      -2.71458132       0.00000000
Si      -2.71518299       2.71332756       0.00109727       0.00000000
Si      -2.71534589      -2.71360449      -0.00003429       0.00000000
Si      -2.71363381      -0.02956635       2.71705018       0.00000000
