10
Lattice="16.28999089631971 0.0 0.0 0.0 16.28999089631971 0.0 0.0 0.0 34.28971787722196" Properties=species:S:1:pos:R:3:initial_magmoms:R:1 pbc="T T T"
Si      -0.00799839      -2.10913146       1.12065719       0.00000000
Si       1.16634771      -0.58508793      -2.01321904       0.00000000
Si      -1.62442251       1.23134481       1.43101360       0.00000000
Si       2.06925354       1.19265606       0.81616432       0.00000000
Si      -1.97076420       1.22828229      -1.08554450       0.00000000
Si       0.51943923       1.50798878       2.67329648       0.00000000
Si      -0.57169755      -1.48138002      -3.20934794       0.00000000
Si       3.63348450      -0.50816655       0.35301284       0.00000000
Si       2.82134655      -2.07718677      -1.22661247       0.00000000
Si       2.46462813       2.62041007      -1.07656058       0.00000000
