10
Lattice="16.28999089631971 0.0 0.0 0.0 16.28999089631971 0.0 0.0 0.0 34.28971787722196" Properties=species:S:1:pos:R:3:initial_magmoms:R:1 pbc="T T T"
Si      -0.52113339      -1.58188932      -1.60235941       0.00000000
Si       2.23803423       0.76538565      -0.28247885       0.00000000
Si      -1.12945412       2.06594667      -0.55172187       0.00000000
Si       0.58458294      -1.23041628       2.00794532       0.00000000
Si       2.99662695      -1.68485841      -0.25004076       0.00000000
Si      -2.43694344       1.99335843       1.61569812       0.00000000
Si       2.12734368       0.94693770      -2.70515164       0.00000000
Si       0.66272607       3.54001248       0.11154451       0.00000000
Si       1.68764400      -2.50530752      -2.00828132       0.00000000
Si       1.51953120       0.46656189       3.28764996       0.00000000
