10
Lattice="16.28999089631971 0.0 0.0 0.0 16.28999089631971 0.0 0.0 0.0 34.28971787722196" Properties=species:S:1:pos:R:3:initial_magmoms:R:1 pbc="T T T"
Si      -1.25177247       1.36259334      -1.43595132       0.00000000
Si      -1.35703845      -1.33341306       1.36684378       0.00000000
Si       1.35651717       1.37829690       1.36293475       0.00000000
Si       1.39212711      -1.31100454      -1.44852879       0.00000000
Si       0.68856201       2.23687764      -2.81847378       0.00000000
Si       2.40385014       0.42810120      -2.74331068       0.00000000
Si       2.70728397      -2.69578139      -0.00512289       0.00000000
Si      -2.72751615      -2.68064072      -0.00017145       0.00000000
Si      -0.00024435      -2.69449854       2.72509456       0.00000000
Si      -2.69721675       2.74051557      -0.01760778       0.00000000
