10
Lattice="16.28999089631971 0.0 0.0 0.0 16.28999089631971 0.0 0.0 0.0 34.28971787722196" Properties=species:S:1:pos:R:3:initial_magmoms:R:1 pbc="T T T"
Si       1.30787523       1.54697985       1.34484349       0.00000000
Si      -1.14979707       1.55136186      -1.49362666       0.00000000
Si       1.57649733      -1.16569937      -1.49002623       0.00000000
Si      -0.81073701      -2.26224606       1.49990168       0.00000000
Si      -2.42916480      -2.50894850      -0.20042351       0.00000000
Si      -2.49183243       0.20285937      -2.89096773       0.00000000
Si       0.22911885      -2.51552020      -2.88644148       0.00000000
Si       2.76661215      -2.68583723       0.08689019       0.00000000
Si       2.81522151       0.33389613       2.65663167       0.00000000
Si      -2.48665221       3.02888115       0.01906509       0.00000000
