10
Lattice="16.28999089631971 0.0 0.0 0.0 16.28999089631971 0.0 0.0 0.0 34.28971787722196" Properties=species:S:1:pos:R:3:initial_magmoms:R:1 pbc="T T T"
Si       2.30262408      -0.24309567      -0.19267403       0.00000000
Si      -0.82021779      -0.65774133       2.09199872       0.00000000
Si      -0.81643851      -1.85140737      -1.22184620       0.00000000
Si      -0.70592715       2.04309180      -1.14877477       0.00000000
Si       1.17095778      -0.00706986       3.25021586       0.00000000
Si      -2.69584839       0.88260849       1.97320292       0.00000000
Si      -0.45595710      -0.80988993      -3.39471826       0.00000000
Si      -2.91252168      -2.14355223      -0.19822897       0.00000000
Si       1.30012119       2.65991265      -2.15826463       0.00000000
Si       2.69954622       0.82720620      -2.36307723       0.00000000
