10
Lattice="16.28999089631971 0.0 0.0 0.0 16.28999089631971 0.0 0.0 0.0 34.28971787722196" Properties=species:S:1:pos:R:3:initial_magmoms:R:1 pbc="T T T"
Si       1.35739683      -1.35746199       1.36102824       0.00000000
Si      -1.35733167       1.36013355       1.36044532       0.00000000
Si      -1.35651717      -1.37829690      -1.36293475       0.00000000
Si       1.38860847       1.35071793      -1.36438521       0.00000000
Si      -2.60828964      -0.01570356      -2.79888607       0.00000000
Si      -2.71355562      -2.71170996       0.00390903       0.00000000
Si       2.71332756       2.71454931       0.00538349       0.00000000
Si       2.71647153      -2.71544689      -0.00171449       0.00000000
Si      -2.71410948       0.00061902       2.71866180       0.00000000
Si      -0.00006516      -2.71407853       2.71873038       0.00000000
