10
Lattice="16.28999089631971 0.0 0.0 0.0 16.28999089631971 0.0 0.0 0.0 34.28971787722196" Properties=species:S:1:pos:R:3:initial_magmoms:R:1 pbc="T T T"
Si       1.34954505       1.35496962       1.35238723       0.00000000
Si       1.35552348      -1.35907470      -1.36061677       0.00000000
Si      -1.36021500       1.35500220      -1.36154259       0.00000000
Si      -1.37671677      -1.36407573       1.39329489       0.00000000
Si       2.71611315       2.70948312       0.00054864       0.00000000
Si      -2.71611315       2.71106325      -0.00099440       0.00000000
Si       2.71479366      -2.71456560       0.00144017       0.00000000
Si      -0.00117288       2.71301805      -2.71732450       0.00000000
Si       2.71375110      -0.00143352      -2.71694731       0.00000000
Si      -2.71875213      -2.71257822      -0.00404619       0.00000000
