10
Lattice="16.28999089631971 0.0 0.0 0.0 16.28999089631971 0.0 0.0 0.0 34.28971787722196" Properties=species:S:1:pos:R:3:initial_magmoms:R:1 pbc="T T T"
Si       1.96706637      -1.29292101       0.14717155       0.00000000
Si      -1.62088758      -1.72063125      -0.00236599       0.00000000
Si      -0.23112252       0.48296592      -2.31147117       0.00000000
Si      -0.14159268       1.69766235       1.70536578       0.00000000
Si       1.79927937      -2.61938313      -1.76523566       0.00000000
Si       3.65109399       0.35699535       0.02407140       0.00000000
Si      -0.39288222      -3.42603135      -1.26796590       0.00000000
Si       1.29424050      -0.97862175      -3.33608281       0.00000000
Si       0.94788252       2.43595773      -2.65889479       0.00000000
Si       1.78096941      -2.50769889       2.18250747       0.00000000
