10
Lattice="16.28999089631971 0.0 0.0 0.0 16.28999089631971 0.0 0.0 0.0 34.28971787722196" Properties=species:S:1:pos:R:3:initial_magmoms:R:1 pbc="T T T"
Si      -0.50503887       1.64076138      -1.57084714       0.00000000
Si       0.16778700       1.32646212       1.91240721       0.00000000
Si       1.78339662      -1.13678136      -1.07169144       0.00000000
Si      -2.19216159      -0.80664822       0.49726977       0.00000000
Si       0.54130041      -1.66796568      -2.96784532       0.00000000
Si      -1.96309161       0.38900520      -2.89326514       0.00000000
Si      -1.79927937       2.61938313       1.76523566       0.00000000
Si      -2.03040189       3.10234905      -0.54623551       0.00000000
Si       3.47169222       0.50650497      -1.36576023       0.00000000
Si      -3.37282821      -0.97538004      -1.54296959       0.00000000
