10
Lattice="16.28999089631971 0.0 0.0 0.0 16.28999089631971 0.0 0.0 0.0 34.28971787722196" Properties=species:S:1:pos:R:3:initial_magmoms:R:1 pbc="T T T"
Si      -1.74583188      -1.06458408      -1.07007982       0.00000000
Si       1.73812671       1.05847533      -1.11057600       0.00000000
Si       0.75442248      -1.02001464       1.94724559       0.00000000
Si      -1.21270905       1.68355521       1.10817572       0.00000000
Si      -2.19211272      -2.40033150       0.90404892       0.00000000
Si      -2.78971137       0.90559368      -1.90184598       0.00000000
Si      -1.25162586      -1.63683549       2.95673545       0.00000000
Si      -0.03609864       3.59031600       0.53690870       0.00000000
Si       2.18660670       2.89033470       0.35194986       0.00000000
Si       3.46603959      -0.51002361      -1.15546127       0.00000000
