10
Lattice="16.28999089631971 0.0 0.0 0.0 16.28999089631971 0.0 0.0 0.0 34.28971787722196" Properties=species:S:1:pos:R:3:initial_magmoms:R:1 pbc="T T T"
Si       2.02694841       0.67279329       1.08567102       0.00000000
Si      -0.82930761      -1.97029179       1.20201610       0.00000000
Si      -1.84753035       1.65799620      -0.13260360       0.00000000
Si       0.37222650       0.66122739      -2.40868776       0.00000000
Si       0.61704891       2.07345636       2.57714086       0.00000000
Si      -2.11996431      -0.64079973       2.61565166       0.00000000
Si      -0.83546523       3.42376704       1.18418887       0.00000000
Si      -3.50292015       0.65777391       1.21253276       0.00000000
Si       1.46867382       2.83827186      -1.99343905       0.00000000
Si      -2.58199758      -2.87847558      -0.13280933       0.00000000
