10
Lattice="16.28999089631971 0.0 0.0 0.0 16.28999089631971 0.0 0.0 0.0 34.28971787722196" Properties=species:S:1:pos:R:3:initial_magmoms:R:1 pbc="T T T"
Si      -1.33765335      -1.11132009      -1.59961623       0.00000000
Si       0.42570657      -1.44306594       1.89721686       0.00000000
Si      -1.55821995       1.21847571       1.55918863       0.00000000
Si       1.50895899       1.48436109      -1.59196962       0.00000000
Si      -1.12454757      -0.31156254       3.35782250       0.00000000
Si      -0.77926473      -3.44079009       1.01991394       0.00000000
Si      -2.67074550      -2.53392579      -0.05246330       0.00000000
Si       0.24698898      -2.39217021      -3.11193080       0.00000000
Si       2.47511889       3.06989937      -0.11511065       0.00000000
Si      -2.47842576       0.31384314      -3.11302807       0.00000000
