10
Lattice="16.28999089631971 0.0 0.0 0.0 16.28999089631971 0.0 0.0 0.0 34.28971787722196" Properties=species:S:1:pos:R:3:initial_magmoms:R:1 pbc="T T T"
Si      -1.55025414       1.13150340       1.46060564       0.00000000
Si      -0.42570657       1.44306594      -1.89721686       0.00000000
Si      -1.20497130      -1.99772415      -0.87730292       0.00000000
Si       2.28915225      -0.11290599       1.10989021       0.00000000
Si      -1.98392652       2.66154165      -0.33802823       0.00000000
Si       1.49462379       0.02046024       3.36910382       0.00000000
Si      -0.22802742       1.68700869       3.30114156       0.00000000
Si      -3.09645207      -1.09085985      -1.94968016       0.00000000
Si      -1.76335992       0.33174585      -3.49683309       0.00000000
Si      -3.15942921      -0.44189883       2.31267131       0.00000000
