10
Lattice="16.28999089631971 0.0 0.0 0.0 16.28999089631971 0.0 0.0 0.0 34.28971787722196" Properties=species:S:1:pos:R:3:initial_magmoms:R:1 pbc="T T T"
Si      -1.17661041      -1.90676079       0.57126702       0.00000000
Si      -0.39817647       1.35641943       1.83124341       0.00000000
Si      -0.97524972       0.66899772      -2.00625822       0.00000000
Si       2.22270534      -0.69998130      -0.18495884       0.00000000
Si       1.77422535      -2.53184067      -1.64748471       0.00000000
Si       0.63806301       2.14667991      -2.85280325       0.00000000
Si       0.03609864      -3.59031600      -0.53690870       0.00000000
Si      -0.78929937       3.48803109       0.70420833       0.00000000
Si       2.79722106      -1.06513794       2.10593849       0.00000000
Si      -3.31019316      -1.65602511      -0.37890159       0.00000000
