10
Lattice="16.28999089631971 0.0 0.0 0.0 16.28999089631971 0.0 0.0 0.0 34.28971787722196" Properties=species:S:1:pos:R:3:initial_magmoms:R:1 pbc="T T T"
Si      -1.28541132       1.37088495       1.41084780       0.00000000
Si       1.45251414      -1.35031068       1.39295199       0.00000000
Si      -1.01206512      -1.76577084      -1.31679246       0.00000000
Si       1.62821808       1.20058929      -1.51505572       0.00000000
Si       0.83546523      -3.42376704      -1.18418887       0.00000000
Si      -2.63122596       2.73876344      -0.03920346       0.00000000
Si      -2.63093274      -0.00014661       2.77525701       0.00000000
Si      -2.66745492      -2.76599313       0.02834390       0.00000000
Si       0.08723295      -2.71661814       2.77738298       0.00000000
Si       0.08506638       2.71811260       2.77786303       0.00000000
