10
Lattice="16.28999089631971 0.0 0.0 0.0 16.28999089631971 0.0 0.0 0.0 34.28971787722196" Properties=species:S:1:pos:R:3:initial_magmoms:R:1 pbc="T T T"
Si      -1.35668697      -1.35597960      -1.35687918       0.00000000
Si       1.35910076       1.35861858      -1.35698205       0.00000000
Si       1.36032251      -1.35405738       1.36061677       0.00000000
Si      -1.35617756       1.35860229       1.36161117       0.00000000
Si      -2.71433495      -2.71412251       0.00010287       0.00000000
Si      -2.71371593       0.00166158      -2.71512996       0.00000000
Si       0.00148402      -2.71376413      -2.71512996       0.00000000
Si       2.71426586      -2.71511294      -0.00058293       0.00000000
Si      -2.71384625       2.71634121      -0.00048006       0.00000000
Si       2.71600889       0.00117288      -2.71454703       0.00000000
