10
Lattice="16.28999089631971 0.0 0.0 0.0 16.28999089631971 0.0 0.0 0.0 34.28971787722196" Properties=species:S:1:pos:R:3:initial_magmoms:R:1 pbc="T T T"
Si      -1.21986036      -1.77572403       0.82346804       0.00000000
Si      -1.48229226       1.67651793      -0.69810476       0.00000000
Si       1.32831918       0.10588500       2.00972149       0.00000000
Si       1.59537744       0.12227274      -1.92396286       0.00000000
Si       2.80245015       1.94909850      -1.02200561       0.00000000
Si       0.50279085      -3.44227248       0.89143029       0.00000000
Si      -2.54208708      -2.33122932      -1.01706789       0.00000000
Si       3.18651948       1.30103343       1.22472654       0.00000000
Si      -0.30014325       3.65598818      -0.44154894       0.00000000
Si       2.97134487      -1.88157645      -1.27496100       0.00000000
