10
Lattice="16.28999089631971 0.0 0.0 0.0 16.28999089631971 0.0 0.0 0.0 34.28971787722196" Properties=species:S:1:pos:R:3:initial_magmoms:R:1 pbc="T T T"
Si       1.12358646      -1.50291540      -1.38256220       0.00000000
Si      -1.97491815      -1.00897002       0.81489560       0.00000000
Si       0.23079672       1.84304964      -1.49966165       0.00000000
Si       1.87304049       0.75139531       1.32865873       0.00000000
Si       2.52512919       1.58141106      -0.83252053       0.00000000
Si      -1.09876050       3.22182710      -0.20316669       0.00000000
Si      -1.28226735      -2.05788312       2.76323846       0.00000000
Si       2.98178676      -0.30776697      -2.16755715       0.00000000
Si      -0.71737902       3.00445334       2.09434856       0.00000000
Si       1.93248270      -3.20189724       0.14785735       0.00000000
