10
Lattice="16.28999089631971 0.0 0.0 0.0 16.28999089631971 0.0 0.0 0.0 34.28971787722196" Properties=species:S:1:pos:R:3:initial_magmoms:R:1 pbc="T T T"
Si      -1.12358646       1.50291540       1.38256220       0.00000000
Si       1.85820030       1.19514843      -0.78499495       0.00000000
Si      -1.32831918      -0.10588500      -2.00972149       0.00000000
Si       0.80889624      -1.69898184       1.53041954       0.00000000
Si      -2.54817954      -1.88160903      -1.18625345       0.00000000
Si       1.40154273       3.08432646       0.55004167       0.00000000
Si      -0.89278974       3.34596504      -0.11709945       0.00000000
Si       0.74945403       2.25431071       2.71122093       0.00000000
Si       3.55581378      -0.47578203      -0.75530004       0.00000000
Si      -0.82552833      -3.54815748      -1.11829119       0.00000000
