10
Lattice="16.28999089631971 0.0 0.0 0.0 16.28999089631971 0.0 0.0 0.0 34.28971787722196" Properties=species:S:1:pos:R:3:initial_magmoms:R:1 pbc="T T T"
Si      -0.74942145       0.24861798       2.18504491       0.00000000
Si       0.26389800       2.26247642      -0.57911937       0.00000000
Si      -2.02088853      -0.46584513      -1.15090073       0.00000000
Si       1.69741800      -1.52560737      -0.89232183       0.00000000
Si      -3.50099793      -0.86740992       0.69474436       0.00000000
Si       2.27672298       2.93986349       0.44669240       0.00000000
Si       0.70235964       2.43664910      -2.88695583       0.00000000
Si       0.06346584      -1.34237745       3.65665756       0.00000000
Si      -3.07405332       0.62321388       2.45610528       0.00000000
Si       3.47610681      -1.90333989       0.75341410       0.00000000
