10
Lattice="16.28999089631971 0.0 0.0 0.0 16.28999089631971 0.0 0.0 0.0 34.28971787722196" Properties=species:S:1:pos:R:3:initial_magmoms:R:1 pbc="T T T"
Si      -0.37931265       1.83613177       1.40989112       0.00000000
Si       1.46878785      -1.36705957       1.24811214       0.00000000
Si       0.65208870       0.83001576      -2.16117926       0.00000000
Si      -1.87304049      -0.75139531      -1.32865873       0.00000000
Si      -1.64224377       1.09165433      -2.82832038       0.00000000
Si      -2.59041951       2.25305803       0.76568983       0.00000000
Si      -0.74945403      -2.25431071      -2.71122093       0.00000000
Si       3.26339199       0.14570886       1.63668344       0.00000000
Si       2.11460490      -3.17044402      -0.14439408       0.00000000
Si       1.10874627      -1.05916228      -3.49621588       0.00000000
