10
Lattice="16.28999089631971 0.0 0.0 0.0 16.28999089631971 0.0 0.0 0.0 34.28971787722196" Properties=species:S:1:pos:R:3:initial_magmoms:R:1 pbc="T T T"
Si       0.75355164       1.53874672      -1.59166101       0.00000000
Si      -0.28795833       0.94353456       2.15775028       0.00000000
Si      -1.79460414      -1.51276843      -0.38857130       0.00000000
Si       2.03669702      -1.31792374      -0.10766977       0.00000000
Si       0.68138042      -0.89125606       3.20787348       0.00000000
Si       2.73177503      -0.78844987       2.04236532       0.00000000
Si       1.20318170      -0.06136052      -3.32288126       0.00000000
Si      -3.26339199      -0.14570886      -1.63668344       0.00000000
Si       2.98422116       2.02731640      -0.89201322       0.00000000
Si       3.10527215       1.53219814       1.39274625       0.00000000
