10
Lattice="16.28999089631971 0.0 0.0 0.0 16.28999089631971 0.0 0.0 0.0 34.28971787722196" Properties=species:S:1:pos:R:3:initial_magmoms:R:1 pbc="T T T"
Si      -1.35760860       1.35736425       1.35783930       0.00000000
Si       1.35702896      -1.35764118       1.35825077       0.00000000
Si       1.35819299       1.35969372      -1.35667345       0.00000000
Si      -1.35834165      -1.35883035      -1.35749640       0.00000000
Si      -0.00241092       2.71318095      -2.71314115       0.00000000
Si       2.71371593      -0.00166158       2.71512996       0.00000000
Si       2.71470311       2.71453302       0.00041148       0.00000000
Si      -0.00013032       2.71467963       2.71464990       0.00000000
Si      -2.71498914       2.71472850       0.00048006       0.00000000
Si      -2.71583622      -0.00027693       2.71416985       0.00000000
