10
Lattice="16.28999089631971 0.0 0.0 0.0 16.28999089631971 0.0 0.0 0.0 34.28971787722196" Properties=species:S:1:pos:R:3:initial_magmoms:R:1 pbc="T T T"
Si       1.35747828       1.35731538       1.35681060       0.00000000
Si      -1.35738054       1.35736425      -1.35735924       0.00000000
Si      -1.35822762      -1.35764118       1.35633055       0.00000000
Si       1.35760860      -1.35736425      -1.35783930       0.00000000
Si       0.00236205       2.71091664       2.71749595       0.00000000
Si      -0.00014661       2.71417464      -2.71519854       0.00000000
Si      -2.71492398       2.71445157      -0.00037719       0.00000000
Si       2.71475830       2.71464705      -0.00030861       0.00000000
Si       2.71463756      -2.71500543       0.00041148       0.00000000
Si       2.71580159       0.00232947      -2.71451274       0.00000000
