10
Lattice="16.28999089631971 0.0 0.0 0.0 16.28999089631971 0.0 0.0 0.0 34.28971787722196" Properties=species:S:1:pos:R:3:initial_magmoms:R:1 pbc="T T T"
Si      -1.16113491      -0.93325410       1.82369966       0.00000000
Si       2.22249357      -0.48060387      -0.73692074       0.00000000
Si      -0.71296443       2.34795915       0.24167407       0.00000000
Si      -1.56467079      -2.16111285      -1.64048960       0.00000000
Si       0.05721048       1.17846747      -3.15249555       0.00000000
Si      -2.61918765      -2.18501028       0.50128167       0.00000000
Si       1.68194250      -0.61906887      -3.15427862       0.00000000
Si      -1.50749289       2.48132538       2.50088768       0.00000000
Si      -2.68649793       0.52833357       2.84831130       0.00000000
Si      -3.00211668       2.46086514      -0.86821614       0.00000000
