10
Lattice="16.28999089631971 0.0 0.0 0.0 16.28999089631971 0.0 0.0 0.0 34.28971787722196" Properties=species:S:1:pos:R:3:initial_magmoms:R:1 pbc="T T T"
Si       1.29983190      -1.32133077      -1.40469279       0.00000000
Si       1.36283836       1.35777150       1.34474405       0.00000000
Si      -1.35488817      -1.36049193       1.35053901       0.00000000
Si      -1.38460113       1.31748633      -1.36942580       0.00000000
Si       2.52601604       0.18301815      -2.67642850       0.00000000
Si      -2.67960726      -2.72432331      -0.01922968       0.00000000
Si       2.70396800      -2.70080055      -0.01740204       0.00000000
Si      -2.71023246      -0.00213399       2.70632092       0.00000000
Si       0.00314698       2.71244790       2.70632092       0.00000000
Si      -2.71868697       2.70088200      -0.01813584       0.00000000
