10
Lattice="16.28999089631971 0.0 0.0 0.0 16.28999089631971 0.0 0.0 0.0 34.28971787722196" Properties=species:S:1:pos:R:3:initial_magmoms:R:1 pbc="T T T"
Si       0.60676015       0.45641322       2.21679721       0.00000000
Si      -1.28960015      -1.94725773       0.26320802       0.00000000
Si       2.18100783      -0.37180296      -0.79850511       0.00000000
Si      -0.92493221       1.67197302      -1.49263225       0.00000000
Si      -0.47914007       2.45917098       2.50225927       0.00000000
Si       1.76602008      -2.08143846      -2.35933965       0.00000000
Si       2.67607722       1.64750544      -2.05560116       0.00000000
Si      -1.11980948       0.45224298      -3.59805640       0.00000000
Si      -1.89278627      -2.78586693      -1.85932670       0.00000000
Si       3.51222663      -1.19016369       1.11997139       0.00000000
