10
Lattice="16.28999089631971 0.0 0.0 0.0 16.28999089631971 0.0 0.0 0.0 34.28971787722196" Properties=species:S:1:pos:R:3:initial_magmoms:R:1 pbc="T T T"
Si       2.17007235      -0.60633009       0.48958887       0.00000000
Si      -1.50993639      -1.31825196       1.28589943       0.00000000
Si       0.30825567       2.03282910       1.20250679       0.00000000
Si      -0.09047466      -0.14338458      -2.45565952       0.00000000
Si       3.03060693       1.08600543      -0.87270810       0.00000000
Si      -1.77450228      -1.79330094      -2.33255936       0.00000000
Si      -3.23784927       0.25024698       1.33078469       0.00000000
Si      -1.96059924      -3.00807882      -0.29722344       0.00000000
Si       2.01056067       3.04699563      -0.03706721       0.00000000
Si       1.23095385       1.47725865       3.29184905       0.00000000
