10
Lattice="16.28999089631971 0.0 0.0 0.0 16.28999089631971 0.0 0.0 0.0 34.28971787722196" Properties=species:S:1:pos:R:3:initial_magmoms:R:1 pbc="T T T"
Si       1.80696825      -1.44032922      -0.22182031       0.00000000
Si      -1.29065670      -1.39105197       1.36898346       0.00000000
Si      -1.19180898      -0.10353924      -2.06753398       0.00000000
Si       0.89575452       2.13876297       0.67108444       0.00000000
Si      -2.87529903       1.45560924      -1.29886095       0.00000000
Si      -1.73913669      -3.22291134      -0.09354240       0.00000000
Si       1.74879666       2.89782810      -1.48532854       0.00000000
Si       3.50927325      -0.42616269      -1.46139430       0.00000000
Si       2.72966643      -1.99589967       1.86752195       0.00000000
Si       2.39461371       1.09444365      -2.87783476       0.00000000
