10
Lattice="16.28999089631971 0.0 0.0 0.0 16.28999089631971 0.0 0.0 0.0 34.28971787722196" Properties=species:S:1:pos:R:3:initial_magmoms:R:1 pbc="T T T"
Si      -1.35617508      -1.35635427      -1.35684489       0.00000000
Si      -1.35228177       1.35890059       1.36068535       0.00000000
Si       1.35900954       1.35802531      -1.35663916       0.00000000
Si       1.36112724      -1.35439947       1.36411432       0.00000000
Si      -2.71336014       0.00109143      -2.71358692       0.00000000
Si      -2.71308321      -2.71513575      -0.00054864       0.00000000
Si       0.00112401      -2.71425609      -2.71451274       0.00000000
Si       0.00107514       2.71561372      -2.71437558       0.00000000
Si      -2.70516627      -0.02769300       2.72497111       0.00000000
Si      -2.71482624       2.71555996      -0.00030861       0.00000000
