10
Lattice="16.28999089631971 0.0 0.0 0.0 16.28999089631971 0.0 0.0 0.0 34.28971787722196" Properties=species:S:1:pos:R:3:initial_magmoms:R:1 pbc="T T T"
Si      -1.42384374      -0.14877657      -1.85377176       0.00000000
Si       1.12127328       1.86235425      -0.88107479       0.00000000
Si      -1.65563415       0.45999702       1.60301092       0.00000000
Si       1.82693979      -1.41670872       0.50724808       0.00000000
Si      -2.37649271       2.01476349      -1.59474709       0.00000000
Si      -0.38025747       0.18712323       3.51216061       0.00000000
Si      -0.61410042       3.42687843      -0.80868916       0.00000000
Si       2.94537861      -1.66889421      -1.69089551       0.00000000
Si       3.10594914      -0.27324846       2.21563136       0.00000000
Si      -3.29954113      -1.26464157       1.48598004       0.00000000
