10
Lattice="16.28999089631971 0.0 0.0 0.0 16.28999089631971 0.0 0.0 0.0 34.28971787722196" Properties=species:S:1:pos:R:3:initial_magmoms:R:1 pbc="T T T"
Si       1.42384374       0.14877657       1.85377176       0.00000000
Si      -1.68849922      -1.63932786       0.20961316       0.00000000
Si      -0.95264897       2.16354006       0.25902467       0.00000000
Si       1.66115646      -0.09076788      -1.97186562       0.00000000
Si       2.54511702       2.01113082       0.97269697       0.00000000
Si      -0.23179041       0.60877359       3.45678268       0.00000000
Si      -2.13483806      -2.00077038      -2.16625414       0.00000000
Si      -1.80077805       2.42997930      -2.12706097       0.00000000
Si      -3.55008689      -0.26339301       1.10241505       0.00000000
Si      -1.04687522      -2.93553945       2.11876285       0.00000000
