10
Lattice="16.28999089631971 0.0 0.0 0.0 16.28999089631971 0.0 0.0 0.0 34.28971787722196" Properties=species:S:1:pos:R:3:initial_magmoms:R:1 pbc="T T T"
Si      -1.35607895      -1.35760795      -1.35663916       0.00000000
Si       1.35709546      -1.35769430       1.35766785       0.00000000
Si       1.35874075       1.35742615      -1.35670774       0.00000000
Si      -1.35817099       1.35778453       1.35825077       0.00000000
Si       2.71278185      -0.00134881       2.71454703       0.00000000
Si       2.71273297       0.00161760      -2.71547286       0.00000000
Si      -0.00072490      -2.71465749      -2.71396411       0.00000000
Si       2.71403617      -2.71470636       0.00010287       0.00000000
Si      -0.00148402       2.71376413       2.71512996       0.00000000
Si       2.71452487       2.71493701       0.00058293       0.00000000
