10
Lattice="10.86 0.0 0.0 0.0 10.86 0.0 0.0 0.0 10.86" Properties=species:S:1:pos:R:3:initial_magmoms:R:1 pbc="T T T"
Si      -1.00123770      -1.25949936       1.44610674       0.00000000
Si       1.49941848      -1.15497186      -1.27715772       0.00000000
Si      -1.21558152       1.56002814      -1.27715772       0.00000000
Si       1.49941848       1.56002814       1.43784228       0.00000000
Si      -2.68375578      -2.39764908       0.43279272       0.00000000
Si       0.14191848      -2.51247186      -2.63465772       0.00000000
Si       2.83200564      -2.34354456       0.17266314       0.00000000
Si      -2.57308152       0.20252814      -2.63465772       0.00000000
Si      -2.54085990       0.14606700       2.81437986       0.00000000
Si       2.60841996       0.20459154       2.84608020       0.00000000
