10
Lattice="10.86 0.0 0.0 0.0 10.86 0.0 0.0 0.0 10.86" Properties=species:S:1:pos:R:3:initial_magmoms:R:1 pbc="T T T"
Si       1.19781456       1.36555812       1.24686918       0.00000000
Si       1.19781456      -1.34944188      -1.46813082       0.00000000
Si      -1.51718544      -1.34944188       1.24686918       0.00000000
Si       2.55531456       0.00805812       2.60436918       0.00000000
Si       2.55531456      -2.70694188      -0.11063082       0.00000000
Si       2.55531456       2.72305812      -0.11063082       0.00000000
Si      -0.15968544      -2.70694188       2.60436918       0.00000000
Si      -0.15968544       2.72305812       2.60436918       0.00000000
Si       2.55531456       0.00805812      -2.82563082       0.00000000
Si      -2.87468544       0.00805812       2.60436918       0.00000000
