10
Lattice="16.28999089631971 0.0 0.0 0.0 16.28999089631971 0.0 0.0 0.0 34.45770212530097" Properties=species:S:1:pos:R:3:initial_magmoms:R:1 pbc="T T T"
Si      -1.35687555      -1.35692120      -1.35615254       0.00000000
Si       1.35819504       1.35764607      -1.35591134       0.00000000
Si      -1.35839052       1.35648948       1.36214818       0.00000000
Si       1.36187658      -1.35708962       1.35994289       0.00000000
Si      -2.70688487       0.00358054       2.71895542       0.00000000
Si       0.00037467      -2.71424210      -2.71299424       0.00000000
Si      -2.71418441       0.00017430      -2.71326990       0.00000000
Si      -2.71324611      -2.71518692       0.00272216       0.00000000
Si      -2.71434569       2.71426098       0.00158506       0.00000000
Si       0.00040725       2.71549902      -2.71354556       0.00000000
