10
Lattice="16.28999089631971 0.0 0.0 0.0 16.28999089631971 0.0 0.0 0.0 34.45770212530097" Properties=species:S:1:pos:R:3:initial_magmoms:R:1 pbc="T T T"
Si       0.36388602      -2.23049848      -0.38055107       0.00000000
Si       1.08551673       1.26167679      -1.61654954       0.00000000
Si      -2.25522018       0.64536093      -0.21022656       0.00000000
Si       0.32852043       0.34028181       2.33430388       0.00000000
Si      -0.00705357       3.28303773      -1.08166233       0.00000000
Si       2.54606184      -2.30528261       0.63739893       0.00000000
Si      -1.65765411      -3.17456981       0.50873380       0.00000000
Si       2.67775020      -0.51435675       2.42475540       0.00000000
Si      -2.17619739       2.68943013      -1.40349745       0.00000000
Si       0.48630537       0.19893348      -3.74806973       0.00000000
