10
Lattice="16.28999089631971 0.0 0.0 0.0 16.28999089631971 0.0 0.0 0.0 34.45770212530097" Properties=species:S:1:pos:R:3:initial_magmoms:R:1 pbc="T T T"
Si       1.90535985       1.32400233      -0.71985626       0.00000000
Si      -2.34922977       0.85463856      -0.09045152       0.00000000
Si      -0.13168836      -1.79092586      -1.78735647       0.00000000
Si       1.25522595      -0.07626978       2.26649108       0.00000000
Si      -2.67775020       0.51435675      -2.42475540       0.00000000
Si      -2.53830780      -1.78453203       2.22283315       0.00000000
Si       3.64796631       0.82663605       0.78446448       0.00000000
Si       1.72615356      -1.17684499      -3.24023183       0.00000000
Si      -0.55560303      -0.86777156       3.72200388       0.00000000
Si       1.46362392       3.61030383      -0.41094279       0.00000000
