10
Lattice="16.28999089631971 0.0 0.0 0.0 16.28999089631971 0.0 0.0 0.0 34.45770212530097" Properties=species:S:1:pos:R:3:initial_magmoms:R:1 pbc="T T T"
Si      -0.32852043      -0.34028181      -2.33430388       0.00000000
Si      -0.66055950       2.25927639       0.43495982       0.00000000
Si       2.34922977      -0.85463856       0.09045152       0.00000000
Si      -1.65006297      -0.68714478       2.52244304       0.00000000
Si      -0.18907803      -2.63917059       2.31328467       0.00000000
Si      -2.58374061       0.30507912      -2.54453044       0.00000000
Si       0.03536559      -2.57078029      -2.71485495       0.00000000
Si      -3.78285077       0.08521299      -0.32597004       0.00000000
Si      -3.09998700       1.98097803       0.95620177       0.00000000
Si       2.21754141      -2.64556442      -1.69690495       0.00000000
