10
Lattice="16.28999089631971 0.0 0.0 0.0 16.28999089631971 0.0 0.0 0.0 34.45770212530097" Properties=species:S:1:pos:R:3:initial_magmoms:R:1 pbc="T T T"
Si      -1.35410625       1.35545832       1.35539447       0.00000000
Si      -1.35571896      -1.35721764      -1.35653158       0.00000000
Si       1.35900954       1.35767376      -1.35677278       0.00000000
Si       1.35762489      -1.35544203       1.36225156       0.00000000
Si      -2.68334093      -0.00625536       2.72281469       0.00000000
Si      -2.71185006       2.71461447       0.00127494       0.00000000
Si      -2.71328683      -0.00016290      -2.71358002       0.00000000
Si       2.71471221       2.71347417       0.00031012       0.00000000
Si       0.00211770       2.71480995      -2.71351110       0.00000000
Si       0.00131949      -2.71459818      -2.71392459       0.00000000
