10
Lattice="16.28999089631971 0.0 0.0 0.0 16.28999089631971 0.0 0.0 0.0 34.45770212530097" Properties=species:S:1:pos:R:3:initial_magmoms:R:1 pbc="T T T"
Si      -1.35762489       1.35544203      -1.36225156       0.00000000
Si      -1.33910316      -1.37313297       1.36521492       0.00000000
Si       1.35824391      -1.35956340      -1.36021855       0.00000000
Si       1.35814617       1.34846991       1.37789536       0.00000000
Si       2.59255350      -0.26345817       2.72491661       0.00000000
Si      -2.71173114       2.71090035      -0.00685709       0.00000000
Si      -2.71334385      -0.00177561      -2.71878313       0.00000000
Si       0.00138465       2.71311579      -2.71902434       0.00000000
Si       2.71746522       2.71567332       0.00044795       0.00000000
Si      -2.71510317      -2.71816569      -0.00048241       0.00000000
