10
Lattice="16.28999089631971 0.0 0.0 0.0 16.28999089631971 0.0 0.0 0.0 34.45770212530097" Properties=species:S:1:pos:R:3:initial_magmoms:R:1 pbc="T T T"
Si       1.41659469       1.27617489       1.35494652       0.00000000
Si       1.34558658      -1.33128396      -1.47699577       0.00000000
Si      -1.14991110      -1.52705718       1.52216984       0.00000000
Si      -1.37471310       1.38134313      -1.48564466       0.00000000
Si      -2.62272258      -2.69311167      -0.01199129       0.00000000
Si      -0.94297923       3.52667097       1.01181653       0.00000000
Si       2.61301374       2.76938145       0.06464269       0.00000000
Si      -2.81251737       2.70257616      -0.12828610       0.00000000
Si      -0.01255959      -2.67975387      -2.85489113       0.00000000
Si       2.57999391      -2.94321204      -0.12997453       0.00000000
