10
Lattice="16.28999089631971 0.0 0.0 0.0 16.28999089631971 0.0 0.0 0.0 34.45770212530097" Properties=species:S:1:pos:R:3:initial_magmoms:R:1 pbc="T T T"
Si       1.73398905      -1.44601443       0.59622195       0.00000000
Si       0.83963547       1.69341066      -1.37165852       0.00000000
Si      -0.72226602       1.22637636       1.87925521       0.00000000
Si      -1.93556151      -1.31026986      -0.44467689       0.00000000
Si      -1.19969334      -3.12334686       0.86295917       0.00000000
Si      -0.92579328       3.23403741      -1.01708856       0.00000000
Si       1.32522408       1.18659618       3.08475859       0.00000000
Si       1.65077973      -1.25727849       2.91867237       0.00000000
Si      -2.27025585       2.67226047       0.84824573       0.00000000
Si      -0.60048198      -2.06060355       2.99447936       0.00000000
