10
Lattice="16.28999089631971 0.0 0.0 0.0 16.28999089631971 0.0 0.0 0.0 34.45770212530097" Properties=species:S:1:pos:R:3:initial_magmoms:R:1 pbc="T T T"
Si      -0.84216042      -1.73327229      -1.36454097       0.00000000
Si       1.93872177       0.84326814      -1.11509101       0.00000000
Si       1.27646811      -1.24941042       1.59372130       0.00000000
Si      -1.41900561       1.45503909       1.55873293       0.00000000
Si      -2.65170249      -2.48451822       0.11461672       0.00000000
Si       2.69011431      -2.50462008       0.23789611       0.00000000
Si       0.85672368      -3.47369589      -1.05605370       0.00000000
Si       2.54615958       2.72191239       0.22825484       0.00000000
Si      -0.07317468      -2.61316035       2.95588671       0.00000000
Si       2.63884968       0.10212201       2.95154504       0.00000000
