10
Lattice="16.28999089631971 0.0 0.0 0.0 16.28999089631971 0.0 0.0 0.0 34.45770212530097" Properties=species:S:1:pos:R:3:initial_magmoms:R:1 pbc="T T T"
Si       1.36868580       1.33413471       1.35036364       0.00000000
Si       1.35335691      -1.36044306      -1.35866795       0.00000000
Si      -1.35969372       1.35604476      -1.35846121       0.00000000
Si      -1.36588392      -1.36826226       1.37251996       0.00000000
Si      -0.05659146       2.57031765       2.68167217       0.00000000
Si       2.71352304       2.71379997       0.00155060       0.00000000
Si       2.71373481      -2.71368594       0.00372143       0.00000000
Si       2.71251306      -0.00128691      -2.71530290       0.00000000
Si      -0.00203625       2.71339272      -2.71547519       0.00000000
Si      -0.00234576      -2.71624347      -2.71575085       0.00000000
