10
Lattice="16.28999089631971 0.0 0.0 0.0 16.28999089631971 0.0 0.0 0.0 34.45770212530097" Properties=species:S:1:pos:R:3:initial_magmoms:R:1 pbc="T T T"
Si      -1.34446257      -0.56177694       1.86533429       0.00000000
Si       1.76542875      -1.54062675      -0.35456995       0.00000000
Si      -1.40792841      -0.30268449      -1.89682865       0.00000000
Si       0.58142268       2.22405741       0.62365030       0.00000000
Si      -0.81477693       3.09545838      -1.06887852       0.00000000
Si       0.92579328      -3.23403741       1.01708856       0.00000000
Si       0.20352726      -2.00766105       2.89634377       0.00000000
Si      -1.16976861       1.77762996      -3.02535348       0.00000000
Si      -0.31493457      -1.88048502      -3.26300838       0.00000000
Si      -3.59354142      -0.97456554      -1.06670768       0.00000000
