10
Lattice="16.28999089631971 0.0 0.0 0.0 16.28999089631971 0.0 0.0 0.0 34.45770212530097" Properties=species:S:1:pos:R:3:initial_magmoms:R:1 pbc="T T T"
Si       1.34827443       1.36374993       1.39388030       0.00000000
Si      -1.36969578      -1.35353610       1.39033115       0.00000000
Si      -1.36236528       1.39413078      -1.41575062       0.00000000
Si       1.41900561      -1.45503909      -1.55873293       0.00000000
Si       2.68247430       2.70875294       0.03153226       0.00000000
Si       2.69547372      -2.70444951       0.03498837       0.00000000
Si      -2.72507265      -2.69306280       0.00165397       0.00000000
Si      -2.73373893       2.71143422       0.02647042       0.00000000
Si       2.70304857       0.00599472       2.75292729       0.00000000
Si      -0.01096317      -2.71006956       2.75172127       0.00000000
