10
Lattice="16.28999089631971 0.0 0.0 0.0 16.28999089631971 0.0 0.0 0.0 34.45770212530097" Properties=species:S:1:pos:R:3:initial_magmoms:R:1 pbc="T T T"
Si      -1.34742735      -1.35301482      -1.38161680       0.00000000
Si       1.37165058       1.36085031      -1.38003174       0.00000000
Si       1.31362560      -1.49771889       1.30105464       0.00000000
Si      -1.48199904       1.30425885       1.37817102       0.00000000
Si      -2.69923997      -2.70164763      -0.02439607       0.00000000
Si      -2.69711086       2.72152047      -0.02101921       0.00000000
Si       2.73548196       2.68399809      -0.02766955       0.00000000
Si      -2.70347211       0.00275301      -2.73725247       0.00000000
Si       0.01052334      -2.71199178      -2.73907873       0.00000000
Si       0.00977400       2.71793993      -2.73997463       0.00000000
