10
Lattice="16.28999089631971 0.0 0.0 0.0 16.28999089631971 0.0 0.0 0.0 34.45770212530097" Properties=species:S:1:pos:R:3:initial_magmoms:R:1 pbc="T T T"
Si      -1.42023550      -1.18047114      -1.40404877       0.00000000
Si       2.25522018      -0.64536093       0.21022656       0.00000000
Si       0.07902279       2.04406920      -1.19327089       0.00000000
Si      -1.19911016      -0.21986613       2.21856039       0.00000000
Si      -1.51451225      -3.18151633      -0.27314636       0.00000000
Si      -1.44216999       3.23854974       0.08352552       0.00000000
Si       2.24816661       2.63767680      -0.87143577       0.00000000
Si       2.58374061      -0.30507912       2.54453044       0.00000000
Si       3.34073691       0.61631586      -1.40632298       0.00000000
Si      -3.40764713       0.08262288      -1.58670915       0.00000000
