10
Lattice="16.28999089631971 0.0 0.0 0.0 16.28999089631971 0.0 0.0 0.0 34.45770212530097" Properties=species:S:1:pos:R:3:initial_magmoms:R:1 pbc="T T T"
Si      -0.83681730      -1.79477423      -1.32348662       0.00000000
Si      -0.40472505      -1.31188583       1.96977564       0.00000000
Si      -1.80898821       1.63797579      -0.02084692       0.00000000
Si       1.94370651       0.97406055      -1.24340688       0.00000000
Si      -2.13478821      -0.40048802      -2.77553500       0.00000000
Si       0.58909527       2.32676586      -2.77067646       0.00000000
Si       0.01989009       0.14535567       3.69142123       0.00000000
Si      -2.59543683      -2.07719396       1.71695934       0.00000000
Si      -0.91123002       3.44465082      -1.40029288       0.00000000
Si       2.70622512       2.71322982       0.32703823       0.00000000
