10
Lattice="16.28999089631971 0.0 0.0 0.0 16.28999089631971 0.0 0.0 0.0 34.45770212530097" Properties=species:S:1:pos:R:3:initial_magmoms:R:1 pbc="T T T"
Si       1.68862140      -1.52282178       0.60986721       0.00000000
Si      -2.07247896      -0.68201343       0.89889858       0.00000000
Si       0.02135619       2.22487191       0.84104406       0.00000000
Si      -0.01510083      -0.45783045      -2.39949789       0.00000000
Si       0.91385271      -3.44035026      -0.50732103       0.00000000
Si      -0.52883856      -2.79331472      -2.32596511       0.00000000
Si       3.63625380      -0.57420621      -0.30264217       0.00000000
Si      -3.65409135       0.76281183      -0.19806298       0.00000000
Si       2.24479458       2.94853887       0.64208518       0.00000000
Si      -0.83970063       3.67595253      -0.78691098       0.00000000
