10
Lattice="16.28999089631971 0.0 0.0 0.0 16.28999089631971 0.0 0.0 0.0 34.45770212530097" Properties=species:S:1:pos:R:3:initial_magmoms:R:1 pbc="T T T"
Si      -1.53497968      -0.48346114      -1.69786976       0.00000000
Si      -1.36706236      -0.23022983       1.95242346       0.00000000
Si       1.91767672      -1.50797574       0.03686976       0.00000000
Si       0.21559652       2.31979048      -1.04878967       0.00000000
Si       0.47275046       0.66322292       3.14662196       0.00000000
Si       2.34838432       1.54743271       1.79962341       0.00000000
Si       2.01227275      -1.28027412      -2.54838970       0.00000000
Si      -0.09980557      -0.64185972      -3.54049641       0.00000000
Si      -3.13667764       1.28666239      -1.75755054       0.00000000
Si      -3.27688567       1.18414942       1.72943304       0.00000000
