10
Lattice="16.28999089631971 0.0 0.0 0.0 16.28999089631971 0.0 0.0 0.0 34.45770212530097" Properties=species:S:1:pos:R:3:initial_magmoms:R:1 pbc="T T T"
Si      -1.71846468      -0.82008747      -1.37761970       0.00000000
Si       1.89899046      -1.55150847       0.34971141       0.00000000
Si       0.90425790       1.93890096      -1.28120700       0.00000000
Si      -1.55613483       0.18368604       2.01698272       0.00000000
Si      -0.21813939      -1.93797243      -2.74800328       0.00000000
Si      -1.52687799       2.56425777       1.94493163       0.00000000
Si       1.13647185      -3.29067774      -1.22073370       0.00000000
Si      -2.61622287      -2.62676250       0.00182626       0.00000000
Si       2.48244939       0.79856838      -2.71830072       0.00000000
Si       1.06709274      -2.46747888       2.93696942       0.00000000
