10
Lattice="16.28999089631971 0.0 0.0 0.0 16.28999089631971 0.0 0.0 0.0 34.45770212530097" Properties=species:S:1:pos:R:3:initial_magmoms:R:1 pbc="T T T"
Si       1.33613838       1.38508983       1.44398527       0.00000000
Si       1.57819149      -1.14033258      -1.43709373       0.00000000
Si      -1.15505874       1.57913631      -1.43002990       0.00000000
Si      -0.90425790      -1.93890096       1.28120700       0.00000000
Si      -2.49781086       0.22014306      -2.82088136       0.00000000
Si       0.21737376      -2.49852762      -2.82580882       0.00000000
Si      -2.62272258      -2.75898843      -0.09641270       0.00000000
Si       2.90670615      -2.53037457       0.11091941       0.00000000
Si      -2.58970275       2.95360506       0.09820451       0.00000000
Si       0.99473256      -3.49040943       1.63091841       0.00000000
