10
Lattice="16.28999089631971 0.0 0.0 0.0 16.28999089631971 0.0 0.0 0.0 34.45770212530097" Properties=species:S:1:pos:R:3:initial_magmoms:R:1 pbc="T T T"
Si       0.05168817       2.31896295       0.65100973       0.00000000
Si      -2.26862685      -0.38156067      -0.79810974       0.00000000
Si       1.32100497      -1.62841356       1.25319287       0.00000000
Si       1.51148394       0.12626379      -2.04372191       0.00000000
Si      -1.54624680      -2.54347173      -1.50349376       0.00000000
Si       0.49923963      -3.32609220      -0.10237389       0.00000000
Si      -0.06550209       1.37855754      -3.22751693       0.00000000
Si      -2.50706358       1.26918648      -2.51775679       0.00000000
Si       0.53339976       2.33290719       2.98490011       0.00000000
Si       1.92749796       3.42756261      -0.21074342       0.00000000
