10
Lattice="16.28999089631971 0.0 0.0 0.0 16.28999089631971 0.0 0.0 0.0 34.45770212530097" Properties=species:S:1:pos:R:3:initial_magmoms:R:1 pbc="T T T"
Si      -1.26857139       1.36515087       1.37948731       0.00000000
Si      -1.25549019      -1.52925633      -1.32437281       0.00000000
Si       1.75906262       1.12511772      -1.18460856       0.00000000
Si       1.44003926      -1.37541357       1.37724067       0.00000000
Si       0.61483673      -1.79833455      -2.91947666       0.00000000
Si       3.45351584      -0.71156349      -1.26592465       0.00000000
Si      -2.61399507      -0.01283652       2.74152867       0.00000000
Si      -2.51804697       2.84788296      -0.09949322       0.00000000
Si       0.10240220       2.70052362       2.74001253       0.00000000
Si       0.10104687      -2.72776050       2.74945395       0.00000000
