10
Lattice="16.28999089631971 0.0 0.0 0.0 16.28999089631971 0.0 0.0 0.0 34.45770212530097" Properties=species:S:1:pos:R:3:initial_magmoms:R:1 pbc="T T T"
Si      -1.61222130      -1.15127946      -1.21397998       0.00000000
Si      -0.09606213       1.08419724      -2.06474112       0.00000000
Si      -1.05178014       1.43479062       1.56791561       0.00000000
Si       1.91632302      -1.33667595       1.06467468       0.00000000
Si       1.12824540       3.28702878      -0.71682398       0.00000000
Si      -2.15650278      -0.26946918       2.80835395       0.00000000
Si       0.68606964       2.39917491       2.80526309       0.00000000
Si      -2.54819583      -2.75397111       0.43092826       0.00000000
Si      -0.72510048      -3.22385616      -1.89162553       0.00000000
Si       0.62643195      -2.89634571       2.69720368       0.00000000
