10
Lattice="16.28999089631971 0.0 0.0 0.0 16.28999089631971 0.0 0.0 0.0 34.45770212530097" Properties=species:S:1:pos:R:3:initial_magmoms:R:1 pbc="T T T"
Si       1.33543791       1.35156501       1.36657256       0.00000000
Si      -1.47406581       1.25431371      -1.36109378       0.00000000
Si      -1.38137571      -1.36547667       1.36219642       0.00000000
Si       1.51246134      -1.30357467      -1.35454336       0.00000000
Si      -0.22538844      -2.26795896      -2.59189085       0.00000000
Si      -2.08150362      -0.62433054      -2.70443962       0.00000000
Si       2.69153154       2.68411537      -0.00811824       0.00000000
Si       2.69211798      -0.00542457       2.72196703       0.00000000
Si      -0.01971090       2.70642971       2.72145016       0.00000000
Si      -0.02112813      -2.72189610       2.72165691       0.00000000
