10
Lattice="16.28999089631971 0.0 0.0 0.0 16.28999089631971 0.0 0.0 0.0 34.45770212530097" Properties=species:S:1:pos:R:3:initial_magmoms:R:1 pbc="T T T"
Si       1.25071362      -1.40888952       1.35735856       0.00000000
Si       1.36197432       1.33571984      -1.35156966       0.00000000
Si      -1.35083196      -1.37938833      -1.35263785       0.00000000
Si      -1.40111919       1.26456012       1.45080790       0.00000000
Si      -0.64873296      -2.17034928       2.66895727       0.00000000
Si      -2.48111361      -0.47425077       2.58818837       0.00000000
Si       2.59374267      -0.02728575       2.64452674       0.00000000
Si      -2.69909010       2.65884633      -0.00124048       0.00000000
Si       0.00491958       2.69191340      -2.71223617       0.00000000
Si      -2.71119357      -0.02339244      -2.71216725       0.00000000
