10
Lattice="16.28999089631971 0.0 0.0 0.0 16.28999089631971 0.0 0.0 0.0 34.45770212530097" Properties=species:S:1:pos:R:3:initial_magmoms:R:1 pbc="T T T"
Si      -0.17622522       2.31559974       0.09568909       0.00000000
Si      -1.87580979      -1.10859966       0.86175315       0.00000000
Si       1.82865024      -1.02882753       1.15223175       0.00000000
Si      -0.75885336      -0.05334975      -2.41545181       0.00000000
Si       1.53134145      -0.10046043      -3.03231394       0.00000000
Si       0.89334360      -0.45854721       3.31438485       0.00000000
Si       2.12542146       2.80522827      -0.17142716       0.00000000
Si      -1.39409820      -1.09465542       3.19564354       0.00000000
Si       1.75987386      -2.37205206      -2.35725272       0.00000000
Si       2.30373180      -3.01143456      -0.06378124       0.00000000
