10
Lattice="16.28999089631971 0.0 0.0 0.0 16.28999089631971 0.0 0.0 0.0 34.45770212530097" Properties=species:S:1:pos:R:3:initial_magmoms:R:1 pbc="T T T"
Si      -1.35467717      -1.35738054      -1.35711736       0.00000000
Si       1.35756788      -1.35705474       1.35704844       0.00000000
Si      -1.35757931       1.35788553       1.35735856       0.00000000
Si       1.35887107       1.35770634      -1.35735856       0.00000000
Si      -0.00085848      -2.71477737      -2.71085786       0.00000000
Si       2.71328683       0.00016290       2.71358002       0.00000000
Si       2.71460632      -2.71443528      -0.00034458       0.00000000
Si      -2.71490673      -2.71420722       0.00006892       0.00000000
Si       0.00143678       2.71477737       2.71485495       0.00000000
Si      -2.71487415       2.71533123      -0.00024120       0.00000000
