10
Lattice="16.28999089631971 0.0 0.0 0.0 16.28999089631971 0.0 0.0 0.0 34.45770212530097" Properties=species:S:1:pos:R:3:initial_magmoms:R:1 pbc="T T T"
Si       1.90982331      -1.41437925       0.22299043       0.00000000
Si      -1.81280007      -0.70198008       1.41295751       0.00000000
Si      -1.39176873      -0.65055581      -1.94389789       0.00000000
Si       0.90754848       1.93065822       1.43305670       0.00000000
Si      -0.41190894      -1.99416804       2.79656941       0.00000000
Si       0.14020803       0.10251297      -3.48698357       0.00000000
Si      -3.01746186       1.02242556      -1.57733665       0.00000000
Si       1.01998206      -3.33437471       1.32251978       0.00000000
Si       2.32676586       0.74044566       2.81989384       0.00000000
Si       3.27688567      -1.18414942      -1.72943304       0.00000000
