10
Lattice="16.28999089631971 0.0 0.0 0.0 16.28999089631971 0.0 0.0 0.0 34.45770212530097" Properties=species:S:1:pos:R:3:initial_magmoms:R:1 pbc="T T T"
Si      -1.35635427      -1.35641943      -1.35694507       0.00000000
Si      -1.35526284       1.35759231       1.35715181       0.00000000
Si       1.35852084       1.35855342      -1.35666941       0.00000000
Si       1.35940050      -1.35457866       1.36049421       0.00000000
Si      -2.69503389      -0.02075346       2.71616435       0.00000000
Si       0.00071676      -2.71376087      -2.71440700       0.00000000
Si       2.71412577      -2.71429519       0.00068915       0.00000000
Si      -2.71399545       0.00109143      -2.71451038       0.00000000
Si      -2.71324611       2.71595025       0.00010337       0.00000000
Si      -2.71490769      -2.71494027       0.00031012       0.00000000
