10
Lattice="16.28999089631971 0.0 0.0 0.0 16.28999089631971 0.0 0.0 0.0 34.45770212530097" Properties=species:S:1:pos:R:3:initial_magmoms:R:1 pbc="T T T"
Si       1.35646636      -1.35742941      -1.36524938       0.00000000
Si      -1.35977615       1.35909099      -1.36573179       0.00000000
Si       1.38655888       1.35215145       1.35635929       0.00000000
Si      -1.37034836      -1.37319813       1.39129942       0.00000000
Si      -0.02733560       2.62264113       2.70010705       0.00000000
Si      -2.71515302      -2.71220355      -0.00534095       0.00000000
Si       2.71242153      -2.71520091      -0.00468625       0.00000000
Si       2.71579356       2.71386513      -0.01106093       0.00000000
Si      -2.71554398       2.71811682      -0.00764961       0.00000000
Si      -0.00094867      -2.71414206      -2.72302143       0.00000000
