10
Lattice="16.28999089631971 0.0 0.0 0.0 16.28999089631971 0.0 0.0 0.0 34.45770212530097" Properties=species:S:1:pos:R:3:initial_magmoms:R:1 pbc="T T T"
Si       2.27236933      -0.08664651       0.59618750       0.00000000
Si      -1.51107669      -0.61919919       1.71113599       0.00000000
Si      -0.11476305      -2.07075222      -1.22045803       0.00000000
Si      -0.66881853       2.20126770      -0.73291573       0.00000000
Si      -3.20274432      -1.31585733       0.23017758       0.00000000
Si       3.38264198      -0.39170934      -1.48498996       0.00000000
Si       2.39539956       1.63181817      -2.38402637       0.00000000
Si       1.11309570      -3.58987617       0.23341660       0.00000000
Si       2.69380629      -2.26701414       1.40270492       0.00000000
Si      -1.82169441       1.16040186       3.26028622       0.00000000
