10
Lattice="16.28999089631971 0.0 0.0 0.0 16.28999089631971 0.0 0.0 0.0 34.45770212530097" Properties=species:S:1:pos:R:3:initial_magmoms:R:1 pbc="T T T"
Si      -0.63211716       0.24221601      -2.26662891       0.00000000
Si       0.62822257      -2.28359736       0.26684059       0.00000000
Si       2.17184700       0.92753631      -0.32462619       0.00000000
Si      -1.34405532       1.04637186       1.84252328       0.00000000
Si       1.07211073      -2.10230595       2.56561856       0.00000000
Si      -0.85889025       2.61886185      -2.38891937       0.00000000
Si      -2.69071704      -0.90217278      -2.41772602       0.00000000
Si      -3.18032928      -1.60254504       1.17893648       0.00000000
Si       1.26789698      -0.41254425      -3.57647028       0.00000000
Si       2.12064264       3.23314146       0.10027197       0.00000000
