10
Lattice="16.28999089631971 0.0 0.0 0.0 16.28999089631971 0.0 0.0 0.0 34.45770212530097" Properties=species:S:1:pos:R:3:initial_magmoms:R:1 pbc="T T T"
Si       1.40318802       1.10534166       1.61437668       0.00000000
Si       1.42311069      -0.81137232      -1.88983373       0.00000000
Si      -1.91632302       1.33667595      -1.06467468       0.00000000
Si      -1.28989107      -1.55966976       1.63252900       0.00000000
Si       0.77714703      -2.96337906      -1.22131948       0.00000000
Si       2.32174854       2.85226497       0.26367048       0.00000000
Si      -0.03554478       2.30092992       3.10287788       0.00000000
Si      -1.63053126      -3.38623488      -1.33082612       0.00000000
Si      -2.91863043      -2.75884182       0.50447624       0.00000000
Si      -2.96810316       2.77146657       0.50324093       0.00000000
