10
Lattice="16.28999089631971 0.0 0.0 0.0 16.28999089631971 0.0 0.0 0.0 34.45770212530097" Properties=species:S:1:pos:R:3:initial_magmoms:R:1 pbc="T T T"
Si      -1.35729484       1.35744570      -1.35759976       0.00000000
Si      -1.35880981      -1.35703845       1.35694507       0.00000000
Si       1.35757931      -1.35788553      -1.35735856       0.00000000
Si       1.35901609       1.35689184       1.35749639       0.00000000
Si       2.71675990      -0.00226431       2.71161593       0.00000000
Si       0.00042779       2.71365336       2.71592314       0.00000000
Si      -2.71457764       0.00198738       2.71502724       0.00000000
Si       0.00290215      -2.71526607      -2.71447592       0.00000000
Si       2.71522864       2.71480995      -0.00031012       0.00000000
Si       2.71514719      -2.71494027      -0.00031012       0.00000000
