10
Lattice="16.28999089631971 0.0 0.0 0.0 16.28999089631971 0.0 0.0 0.0 34.45770212530097" Properties=species:S:1:pos:R:3:initial_magmoms:R:1 pbc="T T T"
Si       0.54409838       0.33788718       2.32758462       0.00000000
Si      -1.51730079       1.53894888      -1.10147552       0.00000000
Si       1.97003701       1.51679448      -0.35095189       0.00000000
Si       0.84574683      -2.00490804      -1.41466175       0.00000000
Si      -2.21847126      -1.43545851       0.23644888       0.00000000
Si       1.67450383      -1.78232148       2.65555321       0.00000000
Si       1.76468527       1.66076550      -2.68149988       0.00000000
Si       1.56459520      -0.63197055      -3.24664097       0.00000000
Si      -1.35591576       0.99264744       3.63742598       0.00000000
Si      -3.67665432       1.71659133      -0.08032095       0.00000000
