10
Lattice="16.28999089631971 0.0 0.0 0.0 16.28999089631971 0.0 0.0 0.0 34.45770212530097" Properties=species:S:1:pos:R:3:initial_magmoms:R:1 pbc="T T T"
Si       1.09299384      -1.57780053      -1.36617974       0.00000000
Si       0.23815980       2.08031445      -1.12852483       0.00000000
Si       1.40792841       0.30268449       1.89682865       0.00000000
Si      -2.18561301      -0.67188105       0.83012097       0.00000000
Si       0.59315148       3.39814287       0.82795013       0.00000000
Si      -3.31601846       1.44832761       0.50215237       0.00000000
Si       3.17335716      -1.23794226       1.54225869       0.00000000
Si       0.06346584      -0.25909245       3.76216294       0.00000000
Si      -1.73563434       3.12249978       1.46066281       0.00000000
Si      -0.39208401      -0.72435114      -3.78108022       0.00000000
