10
Lattice="16.28999089631971 0.0 0.0 0.0 16.28999089631971 0.0 0.0 0.0 34.45770212530097" Properties=species:S:1:pos:R:3:initial_magmoms:R:1 pbc="T T T"
Si      -1.35878637       1.35707103      -1.35415399       0.00000000
Si       1.35752715       1.35630540       1.35904699       0.00000000
Si      -1.35688207      -1.35918873       1.35866795       0.00000000
Si       1.35816246      -1.36065483      -1.36049421       0.00000000
Si      -2.71402128       2.71206611       0.00192963       0.00000000
Si      -2.70523862       0.01397682      -2.72125720       0.00000000
Si       2.71538010       2.71185686       0.00010337       0.00000000
Si      -2.71321057      -2.71538010       0.00048241       0.00000000
Si      -0.00588069       2.70431549      -2.72435495       0.00000000
Si       0.00027693       2.71362630       2.71588868       0.00000000
