10
Lattice="16.28999089631971 0.0 0.0 0.0 16.28999089631971 0.0 0.0 0.0 34.45770212530097" Properties=species:S:1:pos:R:3:initial_magmoms:R:1 pbc="T T T"
Si      -1.35874014       1.35327613      -1.35952940       0.00000000
Si       1.35925354      -1.36168110      -1.35849567       0.00000000
Si       1.36561479       1.35708636       1.35773760       0.00000000
Si      -1.37012685      -1.37072205       1.35046702       0.00000000
Si       2.58072661      -0.06017526       2.75692783       0.00000000
Si       2.71410913       2.70999530       0.00093036       0.00000000
Si      -2.71346541       2.71299266       0.00027566       0.00000000
Si       0.00073893       2.71105415      -2.71740482       0.00000000
Si      -2.71481748      -2.71580364      -0.00244650       0.00000000
Si      -2.71405185      -0.00364223      -2.71730145       0.00000000
