10
Lattice="16.28999089631971 0.0 0.0 0.0 16.28999089631971 0.0 0.0 0.0 34.45770212530097" Properties=species:S:1:pos:R:3:initial_magmoms:R:1 pbc="T T T"
Si       1.21511182      -1.41726162       1.39919023       0.00000000
Si       1.34849434       1.35290893      -1.35680724       0.00000000
Si      -1.36561479      -1.35708636      -1.35773760       0.00000000
Si      -1.31394032       1.28289451       1.51066096       0.00000000
Si       2.29072423       0.32533573       2.40383956       0.00000000
Si      -2.15265738      -0.67488656       2.80265323       0.00000000
Si      -0.47664866      -2.48414259       2.70341499       0.00000000
Si       2.69711086      -2.72152047       0.02101921       0.00000000
Si       2.72449436       2.69794165       0.00889009       0.00000000
Si       2.70688487      -0.00358054      -2.71895542       0.00000000
