10
Lattice="16.28999089631971 0.0 0.0 0.0 16.28999089631971 0.0 0.0 0.0 34.45770212530097" Properties=species:S:1:pos:R:3:initial_magmoms:R:1 pbc="T T T"
Si      -1.72337286       0.41704029       1.46424641       0.00000000
Si      -0.24775461      -0.52672086      -2.29760640       0.00000000
Si       1.64651175       1.69539804       0.50135985       0.00000000
Si       0.16690734      -2.32551153       0.68436480       0.00000000
Si       2.49569316      -2.04986844       0.05165212       0.00000000
Si       3.33827712       0.16998615      -0.12263503       0.00000000
Si      -0.56073112      -0.35399799       3.40259661       0.00000000
Si      -2.28723722       0.63386019      -2.64793806       0.00000000
Si      -3.54026402      -0.96827760       0.91340528       0.00000000
Si      -0.50952677      -2.65960314       2.97769845       0.00000000
