10
Lattice="16.28999089631971 0.0 0.0 0.0 16.28999089631971 0.0 0.0 0.0 34.45770212530097" Properties=species:S:1:pos:R:3:initial_magmoms:R:1 pbc="T T T"
Si       1.72337286      -0.41704029      -1.46424641       0.00000000
Si      -1.81689116      -1.38531789      -0.55084113       0.00000000
Si      -0.85029143       2.12789332       0.63491797       0.00000000
Si       1.16264173      -0.77103828       1.93835020       0.00000000
Si      -2.30469521       0.94967442       2.17683209       0.00000000
Si      -2.29935209      -0.07626978      -2.49325735       0.00000000
Si       1.89028020      -2.74255182      -0.77988161       0.00000000
Si      -0.44880809      -0.03394836       3.47495783       0.00000000
Si       1.21384609      -3.07664343       1.51345204       0.00000000
Si       1.11582427       3.22923905       1.45098019       0.00000000
