10
Lattice="16.28999089631971 0.0 0.0 0.0 16.28999089631971 0.0 0.0 0.0 34.71893929493243" Properties=species:S:1:pos:R:3:initial_magmoms:R:1 pbc="T T T"
Si      -1.35725022      -1.33921719      -1.38361994       0.00000000
Si       1.35752715       1.37922543      -1.37726637       0.00000000
Si      -1.35855342       1.30526883       1.46277917       0.00000000
Si       1.34324082      -1.38833154       1.54002885       0.00000000
Si       2.48495805       0.15960942       2.88830489       0.00000000
Si      -2.70990340      -2.69095813       0.00427043       0.00000000
Si       2.71772586      -2.68709577      -0.00124988       0.00000000
Si      -0.00030951      -2.69614487      -2.74217280       0.00000000
Si      -2.71873747       2.73636162       0.01593600       0.00000000
Si       2.70953199       2.74655916       0.00857558       0.00000000
