10
Lattice="16.28999089631971 0.0 0.0 0.0 16.28999089631971 0.0 0.0 0.0 34.71893929493243" Properties=species:S:1:pos:R:3:initial_magmoms:R:1 pbc="T T T"
Si      -2.06655659      -0.03435561      -1.15041270       0.00000000
Si       2.08790559       0.76263264      -0.90078338       0.00000000
Si      -0.25569599       1.73052972       1.72754595       0.00000000
Si       0.13506039      -2.27682072       0.97431814       0.00000000
Si       3.41444916      -0.36663903       0.97501252       0.00000000
Si       1.98254187      -1.74162906       2.45525532       0.00000000
Si      -3.08104892      -2.02145868      -0.18706575       0.00000000
Si      -2.80863125       2.22018595      -0.97063793       0.00000000
Si       0.16272081      -3.62929797      -0.98476854       0.00000000
Si      -1.49885756       3.47766155       0.62553148       0.00000000
