10
Lattice="16.28999089631971 0.0 0.0 0.0 16.28999089631971 0.0 0.0 0.0 34.71893929493243" Properties=species:S:1:pos:R:3:initial_magmoms:R:1 pbc="T T T"
Si       1.35599589       1.35628422      -1.35792791       0.00000000
Si       1.35715248      -1.35737046       1.35678219       0.00000000
Si      -1.35734796      -1.35817404      -1.35705994       0.00000000
Si      -1.35780408       1.35753855       1.35737241       0.00000000
Si       0.00231318      -2.71221562      -2.71016192       0.00000000
Si       2.71327869       0.00057341       2.71321718       0.00000000
Si       0.00070047      -2.71353511       2.71387684       0.00000000
Si       0.00055386       2.71408830       2.71436291       0.00000000
Si      -2.71495656      -0.00020362       2.71422403       0.00000000
Si       2.71463076      -2.71467541       0.00013888       0.00000000
