10
Lattice="16.28999089631971 0.0 0.0 0.0 16.28999089631971 0.0 0.0 0.0 34.71893929493243" Properties=species:S:1:pos:R:3:initial_magmoms:R:1 pbc="T T T"
Si       1.64537145       1.58003226       0.63025326       0.00000000
Si       0.38190276      -1.09574359      -2.10341339       0.00000000
Si       0.19321569      -1.52110970       1.91395204       0.00000000
Si      -2.26673721       0.83597022      -0.45620712       0.00000000
Si      -0.19668546      -3.21120602      -1.44378790       0.00000000
Si       3.61074366       0.65114388      -0.36819456       0.00000000
Si       0.53230833      -3.60166103       0.79544606       0.00000000
Si       1.04155002       3.67440498      -0.39485872       0.00000000
Si      -1.98065223      -1.68620233       2.91524680       0.00000000
Si      -3.78315702      -1.01773567      -0.45697093       0.00000000
