10
Lattice="16.28999089631971 0.0 0.0 0.0 16.28999089631971 0.0 0.0 0.0 34.71893929493243" Properties=species:S:1:pos:R:3:initial_magmoms:R:1 pbc="T T T"
Si       0.36303894      -1.81072309      -1.42007485       0.00000000
Si       1.88024067       1.31132871       0.57873032       0.00000000
Si      -1.58478894       1.73149668      -0.46311619       0.00000000
Si      -1.03648383      -1.19773691       1.81323234       0.00000000
Si       1.32893820       1.48559913       2.81268700       0.00000000
Si      -2.98994805       0.27795627      -1.70865883       0.00000000
Si      -1.74951342      -1.60514167      -2.53930992       0.00000000
Si       0.76132944      -0.78421689       3.30330061       0.00000000
Si      -2.48179779       2.02971771       1.76629230       0.00000000
Si      -3.25035510      -0.23749191       1.95332334       0.00000000
