10
Lattice="16.28999089631971 0.0 0.0 0.0 16.28999089631971 0.0 0.0 0.0 34.71893929493243" Properties=species:S:1:pos:R:3:initial_magmoms:R:1 pbc="T T T"
Si      -0.55130247       0.17427042       2.23395668       0.00000000
Si      -0.22532328       2.10494493      -1.00632902       0.00000000
Si       2.30651739      -0.45851463      -0.12266208       0.00000000
Si      -1.88024067      -1.31132871      -0.57873032       0.00000000
Si      -1.11891123      -2.09554560       2.72457028       0.00000000
Si      -3.46502961       0.42016797      -1.04184651       0.00000000
Si       2.95922511       0.71887770      -2.05536235       0.00000000
Si       1.27583280       1.16888895       3.31704931       0.00000000
Si       2.43185265      -2.58240646      -1.19585981       0.00000000
Si       1.92223629       2.77361685      -1.72310192       0.00000000
