10
Lattice="16.28999089631971 0.0 0.0 0.0 16.28999089631971 0.0 0.0 0.0 34.71893929493243" Properties=species:S:1:pos:R:3:initial_magmoms:R:1 pbc="T T T"
Si       0.55130247      -0.17427042      -2.23395668       0.00000000
Si       1.82713527       0.99461853       1.08309264       0.00000000
Si      -1.98957915       1.27850436       0.27573797       0.00000000
Si      -0.56760876      -2.26981602       0.49061361       0.00000000
Si       0.95249259       0.36241992       3.23448763       0.00000000
Si      -1.32893820      -1.48559913      -2.81268700       0.00000000
Si      -2.36542203      -2.68333604      -0.99945466       0.00000000
Si      -1.32040224      -0.43978113       3.47238194       0.00000000
Si       2.85781986      -0.63278505      -2.35661876       0.00000000
Si       0.32597919       1.93067451      -3.24028570       0.00000000
