10
Lattice="16.28999089631971 0.0 0.0 0.0 16.28999089631971 0.0 0.0 0.0 34.71893929493243" Properties=species:S:1:pos:R:3:initial_magmoms:R:1 pbc="T T T"
Si      -1.79781327      -0.41352002      -1.49006827       0.00000000
Si       0.56760876       2.26981602      -0.49061361       0.00000000
Si      -1.62846243      -0.02852379       1.75591134       0.00000000
Si       1.98646776      -1.58245866      -0.06096649       0.00000000
Si      -0.76132944       0.78421689      -3.30330061       0.00000000
Si      -0.75279348       1.83003489       2.98176833       0.00000000
Si       1.11891123       2.09554560      -2.72457028       0.00000000
Si      -1.80628407      -2.78776376      -1.43708714       0.00000000
Si      -1.68349005      -2.44381670       2.20763971       0.00000000
Si      -1.42197039       3.54832038      -0.21487564       0.00000000
