10
Lattice="16.28999089631971 0.0 0.0 0.0 16.28999089631971 0.0 0.0 0.0 34.71893929493243" Properties=species:S:1:pos:R:3:initial_magmoms:R:1 pbc="T T T"
Si      -1.35918873       1.35382932      -1.36560080       0.00000000
Si       1.35767376      -1.36107837      -1.36476755       0.00000000
Si       1.35200484       1.36733373       1.38584196       0.00000000
Si      -1.35752715      -1.37922543       1.37726637       0.00000000
Si       2.71280628       2.71130760      -0.00218729       0.00000000
Si       2.65616595      -0.11248245       2.76793426       0.00000000
Si      -2.71665072       2.71282257      -0.00076382       0.00000000
Si      -2.71477737      -2.71844262      -0.00635357       0.00000000
Si      -0.00052128       2.71215468      -2.72141086       0.00000000
Si       2.71433754      -0.00221544      -2.72172333       0.00000000
