10
Lattice="16.28999089631971 0.0 0.0 0.0 16.28999089631971 0.0 0.0 0.0 34.71893929493243" Properties=species:S:1:pos:R:3:initial_magmoms:R:1 pbc="T T T"
Si       0.52212708       1.69091829       1.57721286       0.00000000
Si      -2.24464797       0.49365216      -0.59820766       0.00000000
Si       1.38448710       0.10114461      -1.96634294       0.00000000
Si       0.60382143      -2.09437272       1.02511197       0.00000000
Si       3.36080619      -0.98375310      -0.91796927       0.00000000
Si       0.41723577       0.53506134       3.58580877       0.00000000
Si       2.86607889       2.05315902       1.41042298       0.00000000
Si      -2.65193055       2.76625377      -0.04461386       0.00000000
Si      -1.04155002      -3.67440498       0.39485872       0.00000000
Si      -3.69483264      -0.68214375       0.88154908       0.00000000
