10
Lattice="16.28999089631971 0.0 0.0 0.0 16.28999089631971 0.0 0.0 0.0 34.71893929493243" Properties=species:S:1:pos:R:3:initial_magmoms:R:1 pbc="T T T"
Si      -1.34153037      -1.36073628       1.37471800       0.00000000
Si       1.38173409       1.34926812       1.36888522       0.00000000
Si       1.18859985      -1.43037603      -1.47053191       0.00000000
Si      -1.46642580       1.34744364      -1.46337981       0.00000000
Si       2.33725662       0.36025335      -2.65111226       0.00000000
Si      -2.68395669      -2.71417464       0.00147903       0.00000000
Si      -2.70198972       2.70133812       0.01007891       0.00000000
Si      -2.69259039      -0.00860112       2.73236816       0.00000000
Si       2.71103067      -2.71428867      -0.01076635       0.00000000
Si       0.02016702       2.70811476       2.73143075       0.00000000
