10
Lattice="16.28999089631971 0.0 0.0 0.0 16.28999089631971 0.0 0.0 0.0 34.71893929493243" Properties=species:S:1:pos:R:3:initial_magmoms:R:1 pbc="T T T"
Si       1.35725022      -1.35685926      -1.35827510       0.00000000
Si       1.35757602       1.35793440       1.35719881       0.00000000
Si      -1.35866745      -1.35832536       1.35581006       0.00000000
Si      -1.35765747       1.35773892      -1.35834454       0.00000000
Si       2.71381626      -0.00237834      -2.71450179       0.00000000
Si      -2.71407690      -0.00130320      -2.71481426       0.00000000
Si       2.71485882      -2.71437012      -0.00031247       0.00000000
Si      -2.71528236      -2.71461447      -0.00069438       0.00000000
Si       2.71500543       2.71557558       0.00003472       0.00000000
Si      -0.00131949       2.71541268      -2.71575167       0.00000000
