10
Lattice="16.28999089631971 0.0 0.0 0.0 16.28999089631971 0.0 0.0 0.0 34.71893929493243" Properties=species:S:1:pos:R:3:initial_magmoms:R:1 pbc="T T T"
Si       0.81181215       2.05644960      -0.79860549       0.00000000
Si       1.73822445      -1.61518608      -0.23251287       0.00000000
Si      -1.43583318      -0.53985060      -1.85433958       0.00000000
Si      -1.26153018       0.02474451       2.13309810       0.00000000
Si      -3.52681758      -0.34873632      -0.74416616       0.00000000
Si       1.63333314      -2.77104303       1.77608305       0.00000000
Si      -3.30162462      -1.00939356       1.46527893       0.00000000
Si      -0.48322656       3.77260110       0.12488409       0.00000000
Si      -1.02855060      -2.81245221      -2.40793338       0.00000000
Si       2.83812525       2.73214251       0.11023269       0.00000000
