10
Lattice="16.28999089631971 0.0 0.0 0.0 16.28999089631971 0.0 0.0 0.0 34.71893929493243" Properties=species:S:1:pos:R:3:initial_magmoms:R:1 pbc="T T T"
Si      -0.30769692       2.33289090      -0.05805010       0.00000000
Si      -1.76389490      -0.64571931      -1.46628578       0.00000000
Si      -1.33044177      -0.66644019       1.94037316       0.00000000
Si       2.31134900      -0.96617619      -0.03767007       0.00000000
Si      -0.07187311      -0.39092742      -3.14355868       0.00000000
Si      -2.64021545      -1.92391579       0.34420376       0.00000000
Si       1.95122597       2.69449632       0.30035371       0.00000000
Si       3.18701795       0.89238249       1.18818692       0.00000000
Si      -0.08728019      -2.41357201       3.04238763       0.00000000
Si       0.69668420       1.87628220      -3.33058971       0.00000000
