10
Lattice="16.28999089631971 0.0 0.0 0.0 16.28999089631971 0.0 0.0 0.0 34.71893929493243" Properties=species:S:1:pos:R:3:initial_magmoms:R:1 pbc="T T T"
Si       0.87566895       1.85855868       1.22585699       0.00000000
Si       1.62846243       0.02852379      -1.75591134       0.00000000
Si      -0.05502762      -2.41529291       0.45172837       0.00000000
Si      -2.31134900       0.96617619       0.03767007       0.00000000
Si      -0.16935084      -0.38499623      -3.24597961       0.00000000
Si      -0.36012303       3.66067251       0.33802378       0.00000000
Si       2.19607119       2.29833981      -2.24652494       0.00000000
Si       1.09265175       1.45288881       3.48477660       0.00000000
Si      -2.38322211       0.57524877      -3.10588861       0.00000000
Si      -2.14293321      -3.17792555       1.35251176       0.00000000
