10
Lattice="16.28999089631971 0.0 0.0 0.0 16.28999089631971 0.0 0.0 0.0 34.71893929493243" Properties=species:S:1:pos:R:3:initial_magmoms:R:1 pbc="T T T"
Si      -1.23924546       1.30937391       1.52663080       0.00000000
Si      -1.66200354      -1.10328912      -1.32783842       0.00000000
Si       1.08580995       1.55331666      -1.52337560       0.00000000
Si       1.46070801      -1.37516922       1.50788257       0.00000000
Si       2.62677879       2.55679695       0.07335074       0.00000000
Si      -2.67361254       2.64326427       0.30260003       0.00000000
Si      -2.73114882      -2.76206724       0.05059247       0.00000000
Si      -2.60141526      -0.04261464       2.88636410       0.00000000
Si       0.46810944       0.65979387      -3.80764004       0.00000000
Si       2.85250932      -2.65026897       0.10020586       0.00000000
