10
Lattice="16.28999089631971 0.0 0.0 0.0 16.28999089631971 0.0 0.0 0.0 34.71893929493243" Properties=species:S:1:pos:R:3:initial_magmoms:R:1 pbc="T T T"
Si       2.29702032       0.64278711      -0.14099369       0.00000000
Si      -0.79091208       1.56313953       1.63672115       0.00000000
Si      -1.13850810       1.32203124      -2.02703168       0.00000000
Si       0.26397945      -2.32233498       1.31234192       0.00000000
Si       2.30153265      -1.43193987      -1.87267119       0.00000000
Si       1.86740415       3.15018205      -0.03096931       0.00000000
Si      -0.21232386       3.67860195       0.97709565       0.00000000
Si      -1.55556468      -3.61144413       0.54116441       0.00000000
Si      -3.45318678      -1.98648405       0.26320443       0.00000000
Si      -3.12471522       2.13863265       1.37032258       0.00000000
