10
Lattice="16.28999089631971 0.0 0.0 0.0 16.28999089631971 0.0 0.0 0.0 34.71893929493243" Properties=species:S:1:pos:R:3:initial_magmoms:R:1 pbc="T T T"
Si       1.31705139      -1.29444480       1.38762998       0.00000000
Si       0.89681826       1.86036524      -1.16551579       0.00000000
Si      -0.70600697      -1.84053447      -1.33777741       0.00000000
Si      -1.42447465       1.38446918       1.32809738       0.00000000
Si       1.93934568       0.13856600      -2.47066502       0.00000000
Si       0.06474949      -1.08497753      -3.44914944       0.00000000
Si       2.59392675      -2.69452143       0.11468366       0.00000000
Si      -2.68557170      -2.63149542      -0.14310460       0.00000000
Si      -0.05252222      -2.66301657       2.70320424       0.00000000
Si       2.66332215       0.04995817       2.70299592       0.00000000
