10
Lattice="16.28999089631971 0.0 0.0 0.0 16.28999089631971 0.0 0.0 0.0 34.71893929493243" Properties=species:S:1:pos:R:3:initial_magmoms:R:1 pbc="T T T"
Si      -1.29270924       1.38069153      -1.41497116       0.00000000
Si      -1.70077374      -0.86840361       1.43059469       0.00000000
Si       1.43565399      -1.35371529      -1.37959254       0.00000000
Si       1.17333612       1.63530423       1.41951935       0.00000000
Si      -2.47642209       2.83515071       0.07829125       0.00000000
Si      -2.72293866      -2.66238873       0.09363703       0.00000000
Si       2.75955858       2.66655897      -0.01652622       0.00000000
Si      -2.64824901       0.01220121      -2.78078028       0.00000000
Si       0.06779898      -2.70255987      -2.77560715       0.00000000
Si       0.06680529       2.72549619      -2.77862770       0.00000000
