10
Lattice="16.28999089631971 0.0 0.0 0.0 16.28999089631971 0.0 0.0 0.0 34.71893929493243" Properties=species:S:1:pos:R:3:initial_magmoms:R:1 pbc="T T T"
Si       1.38018654       1.36482507       1.31046710       0.00000000
Si      -1.43190729      -1.37499003       1.48024280       0.00000000
Si       2.00075409      -1.49584554       0.20612646       0.00000000
Si      -1.32654357       1.12927167      -1.87579590       0.00000000
Si      -3.41444916       0.36663903      -0.97501252       0.00000000
Si      -0.18288783       2.06452034       2.91994258       0.00000000
Si      -0.50404518      -0.31382685      -3.58001071       0.00000000
Si       2.61845460      -0.60232275       2.49039091       0.00000000
Si      -3.27938877      -1.91018169      -0.00069438       0.00000000
Si       3.45822039      -1.08018990      -1.60984868       0.00000000
