10
Lattice="16.28999089631971 0.0 0.0 0.0 16.28999089631971 0.0 0.0 0.0 34.71893929493243" Properties=species:S:1:pos:R:3:initial_magmoms:R:1 pbc="T T T"
Si      -1.49032323      -0.22274946      -1.79058867       0.00000000
Si      -1.84466331      -0.83927057       1.28243293       0.00000000
Si       1.73934846      -1.67458268      -0.11463510       0.00000000
Si       0.87729795       1.93476330       1.17437017       0.00000000
Si       1.89612342       0.66409443      -2.50909752       0.00000000
Si      -0.33910893      -2.03594440       2.58401197       0.00000000
Si       2.37374622       0.70537329       2.56932585       0.00000000
Si      -1.95519096      -2.51795249      -1.65862191       0.00000000
Si      -0.26124273       0.40997043      -3.67124523       0.00000000
Si       1.17032247       2.88060957      -2.03417689       0.00000000
