10
Lattice="16.28999089631971 0.0 0.0 0.0 16.28999089631971 0.0 0.0 0.0 34.71893929493243" Properties=species:S:1:pos:R:3:initial_magmoms:R:1 pbc="T T T"
Si      -0.38463948      -0.22501377       2.27631381       0.00000000
Si      -1.80432927      -1.02190984      -1.15579414       0.00000000
Si       1.00910034       1.86885559      -1.12725515       0.00000000
Si       1.71453879      -1.73788792       0.02027587       0.00000000
Si       2.28938031       0.42702280      -2.56496723       0.00000000
Si       0.04497669      -2.73240871       2.16628943       0.00000000
Si      -0.43947162      -2.32356229      -2.56673790       0.00000000
Si       3.57894558      -0.87642953      -1.14930169       0.00000000
Si       1.00229112      -3.57461800      -1.24727859       0.00000000
Si      -3.39055173      -2.05316458       0.28025143       0.00000000
