10
Lattice="16.28999089631971 0.0 0.0 0.0 16.28999089631971 0.0 0.0 0.0 34.71893929493243" Properties=species:S:1:pos:R:3:initial_magmoms:R:1 pbc="T T T"
Si       1.51928685      -0.42520158       1.69779180       0.00000000
Si       0.54942912      -1.98409105      -1.17745877       0.00000000
Si       0.79161255       2.03950800      -0.94463343       0.00000000
Si      -1.96537221       0.92888838       0.99844781       0.00000000
Si       1.20919041       1.59459552       2.78786295       0.00000000
Si       3.45831813      -0.88830999       0.39864308       0.00000000
Si       1.48890600       3.12707727       1.04208955       0.00000000
Si      -3.61074366      -0.65114388       0.36819456       0.00000000
Si       2.83613787      -1.72831361      -1.67192618       0.00000000
Si      -1.11496905       1.50358329       3.22688418       0.00000000
