10
Lattice="16.28999089631971 0.0 0.0 0.0 16.28999089631971 0.0 0.0 0.0 34.71893929493243" Properties=species:S:1:pos:R:3:initial_magmoms:R:1 pbc="T T T"
Si      -1.69854201      -0.29121633      -1.56582504       0.00000000
Si       2.28670875       0.25577743      -0.49446741       0.00000000
Si      -0.54942912       1.98409105       1.17745877       0.00000000
Si      -0.07897392      -2.39049790       0.39037997       0.00000000
Si       0.96985773       1.55888947       2.87525056       0.00000000
Si       2.90888901       1.09578106       1.57610185       0.00000000
Si      -1.26892584      -2.79861127      -1.67584942       0.00000000
Si       2.21311053      -3.03162343      -0.03364267       0.00000000
Si      -3.77827002       0.23720358      -0.55776007       0.00000000
Si      -1.34439741      -3.01947109       2.31658780       0.00000000
