10
Lattice="16.28999089631971 0.0 0.0 0.0 16.28999089631971 0.0 0.0 0.0 34.71893929493243" Properties=species:S:1:pos:R:3:initial_magmoms:R:1 pbc="T T T"
Si       1.35512437      -1.35739683       1.36233722       0.00000000
Si      -1.36006743       1.35912357       1.36254553       0.00000000
Si       1.36530562       1.36643778      -1.36757978       0.00000000
Si      -1.37802860      -1.37761272      -1.36701734       0.00000000
Si       2.70976820      -2.71212373       0.00788120       0.00000000
Si      -2.71583526      -2.71057129       0.00583279       0.00000000
Si       2.70773194       2.71987614       0.00565919       0.00000000
Si       2.71305877       0.00125433       2.71977907       0.00000000
Si      -0.00185706      -2.71368431       2.72026513       0.00000000
Si      -2.71749684       2.71865439       0.00444403       0.00000000
