10
Lattice="16.28999089631971 0.0 0.0 0.0 16.28999089631971 0.0 0.0 0.0 34.71893929493243" Properties=species:S:1:pos:R:3:initial_magmoms:R:1 pbc="T T T"
Si       0.39970773      -0.37726404      -2.25621153       0.00000000
Si      -0.91530252      -1.80703734       1.23266334       0.00000000
Si      -1.73934846       1.67458268       0.11463510       0.00000000
Si       1.88059905       0.99368511       1.22808044       0.00000000
Si       0.15677496       2.33867711      -2.39446242       0.00000000
Si      -2.07845739      -0.36136172       2.69864707       0.00000000
Si       0.63439776       2.37995597       2.68396095       0.00000000
Si      -2.45627136      -2.81051763      -0.36406300       0.00000000
Si       2.60727966      -1.05308727      -2.61992734       0.00000000
Si      -3.22967169       1.45183322      -1.67595357       0.00000000
