10
Lattice="16.28999089631971 0.0 0.0 0.0 16.28999089631971 0.0 0.0 0.0 34.71893929493243" Properties=species:S:1:pos:R:3:initial_magmoms:R:1 pbc="T T T"
Si      -1.35653346      -1.35684297       1.35830982       0.00000000
Si       1.35725022      -1.35835794      -1.35747657       0.00000000
Si       1.35798327       1.35928647       1.35820566       0.00000000
Si      -1.35565380       1.36192545      -1.35841398       0.00000000
Si      -2.71554300       2.71331127       0.00149292       0.00000000
Si       0.00029322      -2.71353933       2.71540448       0.00000000
Si       2.71489140      -2.71472850      -0.00006944       0.00000000
Si      -2.71450044       0.00131949       2.71568223       0.00000000
Si      -2.71572219      -2.71534752       0.00034719       0.00000000
Si       2.71524978       0.00177561       2.71592526       0.00000000
