10
Lattice="16.28999089631971 0.0 0.0 0.0 16.28999089631971 0.0 0.0 0.0 34.71893929493243" Properties=species:S:1:pos:R:3:initial_magmoms:R:1 pbc="T T T"
Si       1.07569386       1.67073498      -1.29984309       0.00000000
Si      -0.82886778       1.59501906       1.66342003       0.00000000
Si      -1.77139089      -1.20378213      -1.20304664       0.00000000
Si       1.82322567      -1.67964561       0.07176409       0.00000000
Si      -0.35214093      -0.38835360       2.96836681       0.00000000
Si       2.37040677       0.26582022      -2.63107213       0.00000000
Si      -0.35754921      -2.46387879      -2.61517084       0.00000000
Si       2.64536568       2.79906183       0.07655530       0.00000000
Si       3.70498131      -0.91375497      -1.11475633       0.00000000
Si      -0.36522180       2.99910303      -2.59295071       0.00000000
