10
Lattice="16.28999089631971 0.0 0.0 0.0 16.28999089631971 0.0 0.0 0.0 34.71893929493243" Properties=species:S:1:pos:R:3:initial_magmoms:R:1 pbc="T T T"
Si       1.88175564       0.76589064      -1.18652041       0.00000000
Si       1.19682630      -0.04090419       2.10202464       0.00000000
Si      -1.82322567       1.67964561      -0.07176409       0.00000000
Si      -0.74603313      -2.01455172      -1.25724293       0.00000000
Si       0.54718110       1.94546583      -2.70283622       0.00000000
Si      -2.18077488      -0.78423318      -2.68693493       0.00000000
Si       2.58742215      -1.88432946       1.71699138       0.00000000
Si      -0.74753181       3.35038059      -1.37160718       0.00000000
Si      -3.59461656       0.47586348      -1.27481073       0.00000000
Si      -2.17536660       1.29129201       2.89660272       0.00000000
