10
Lattice="16.28999089631971 0.0 0.0 0.0 16.28999089631971 0.0 0.0 0.0 34.71893929493243" Properties=species:S:1:pos:R:3:initial_magmoms:R:1 pbc="T T T"
Si       1.19202075      -1.94934285      -0.34166927       0.00000000
Si      -2.34395181      -0.36224073       0.16678988       0.00000000
Si       1.01942820       0.99491175       1.90482095       0.00000000
Si       0.65573766       1.73200167      -1.52937013       0.00000000
Si       0.82492560       2.93632137       0.50991735       0.00000000
Si      -2.44884312      -1.51809768       2.17538580       0.00000000
Si      -2.86607889      -2.05315902      -1.41042298       0.00000000
Si       3.47034015      -1.49856597      -0.61688646       0.00000000
Si       0.49472730      -3.03691212      -2.32839225       0.00000000
Si       0.91230516      -3.48182460       1.40410413       0.00000000
