10
Lattice="16.28999089631971 0.0 0.0 0.0 16.28999089631971 0.0 0.0 0.0 34.71893929493243" Properties=species:S:1:pos:R:3:initial_magmoms:R:1 pbc="T T T"
Si       1.29471291      -1.40491476      -1.33122903       0.00000000
Si      -1.44091566       1.32836805      -1.29310762       0.00000000
Si       1.56967182       1.12832685       1.37639840       0.00000000
Si      -1.07569386      -1.67073498       1.29984309       0.00000000
Si      -1.90456164      -0.07571592       2.96326312       0.00000000
Si       2.62928745      -2.58448995       0.18508677       0.00000000
Si       0.74753181      -3.35038059       1.37160718       0.00000000
Si       2.64157011      -0.05137866      -2.68148406       0.00000000
Si      -0.07525980       2.66346387      -2.67495689       0.00000000
Si       3.40584804      -0.53911755       1.54912522       0.00000000
