10
Lattice="16.28999089631971 0.0 0.0 0.0 16.28999089631971 0.0 0.0 0.0 34.71893929493243" Properties=species:S:1:pos:R:3:initial_magmoms:R:1 pbc="T T T"
Si       1.35373113      -1.35268678      -1.35591421       0.00000000
Si      -1.35666327      -1.35662896       1.35667803       0.00000000
Si       1.35795024       1.35872737       1.35626140       0.00000000
Si      -1.35602796       1.36184039      -1.35817095       0.00000000
Si      -0.02098751      -2.68897177      -2.69674651       0.00000000
Si       2.72330474       0.01588499      -2.67148847       0.00000000
Si      -0.01822130       2.69479896      -2.73102107       0.00000000
Si       0.00115661      -2.71436788       2.71321718       0.00000000
Si      -2.71459767       0.00173152       2.71342550       0.00000000
Si       2.71507829      -2.71308097      -0.00121516       0.00000000
