10
Lattice="16.28999089631971 0.0 0.0 0.0 16.28999089631971 0.0 0.0 0.0 34.71893929493243" Properties=species:S:1:pos:R:3:initial_magmoms:R:1 pbc="T T T"
Si      -1.36057338      -1.35110889       1.39712215       0.00000000
Si       1.35529542       1.36314720       1.39139352       0.00000000
Si      -1.56126618       1.24880769      -1.41609953       0.00000000
Si       1.46842947      -1.36576989      -1.45916492       0.00000000
Si      -2.72733696      -2.68315848       0.01843230       0.00000000
Si      -2.72442105       2.69448331       0.04988420       0.00000000
Si       2.71057455      -2.71554300       0.03891301       0.00000000
Si       2.71637379       2.72329704       0.00655494       0.00000000
Si      -0.00226431      -2.71109583       2.75654297       0.00000000
Si       2.71415835       0.00312768       2.75675129       0.00000000
