10
Lattice="16.28999089631971 0.0 0.0 0.0 16.28999089631971 0.0 0.0 0.0 34.71893929493243" Properties=species:S:1:pos:R:3:initial_magmoms:R:1 pbc="T T T"
Si       1.35677781       1.35821387      -1.35917780       0.00000000
Si      -1.35870003      -1.35711990      -1.35910836       0.00000000
Si       1.35827649      -1.36019871       1.35730297       0.00000000
Si      -1.36260963       1.36132999       1.35834454       0.00000000
Si      -2.71598283      -2.71409319      -0.00149292       0.00000000
Si       2.71477737      -2.71564074      -0.00194426       0.00000000
Si       2.71471221      -0.00014661      -2.71592526       0.00000000
Si      -0.00073305      -2.71531494      -2.71599470       0.00000000
Si      -2.71578735       0.00021177      -2.71606414       0.00000000
Si      -0.00120546       2.71581408      -2.71623773       0.00000000
