10
Lattice="16.28999089631971 0.0 0.0 0.0 16.28999089631971 0.0 0.0 0.0 34.71893929493243" Properties=species:S:1:pos:R:3:initial_magmoms:R:1 pbc="T T T"
Si      -0.03533301      -1.11272103       2.04383566       0.00000000
Si      -2.11626648      -0.49493907      -1.00546104       0.00000000
Si       0.48808098       2.29680855       0.68510921       0.00000000
Si       1.21686300      -1.85857497      -1.10600715       0.00000000
Si       2.48305212      -0.01097946      -0.63032270       0.00000000
Si      -1.41661098       0.37082556       3.34586605       0.00000000
Si       2.28379284      -1.53169983       2.56048848       0.00000000
Si       3.50384868       0.17594829       1.47076453       0.00000000
Si      -2.86000272      -2.50745454       0.10790652       0.00000000
Si      -1.41467247      -3.00205152       1.97293955       0.00000000
