10
Lattice="16.28999089631971 0.0 0.0 0.0 16.28999089631971 0.0 0.0 0.0 34.71893929493243" Properties=species:S:1:pos:R:3:initial_magmoms:R:1 pbc="T T T"
Si       1.90368198       1.07150733       0.87432754       0.00000000
Si      -0.05590728      -0.29445804      -2.34793902       0.00000000
Si      -2.26426113       0.83816937       0.26275308       0.00000000
Si       0.39319173      -1.60433694       1.98186232       0.00000000
Si      -1.73819187      -2.69390988       1.24967420       0.00000000
Si      -1.91212020       2.98007631       1.01396719       0.00000000
Si      -2.37503313       0.12452076      -2.86459184       0.00000000
Si       1.16414856       1.41319008      -3.43766298       0.00000000
Si       0.75160431      -2.36042100      -3.19598430       0.00000000
Si       2.07967914      -3.22076106       1.40160436       0.00000000
