10
Lattice="16.28999089631971 0.0 0.0 0.0 16.28999089631971 0.0 0.0 0.0 34.71893929493243" Properties=species:S:1:pos:R:3:initial_magmoms:R:1 pbc="T T T"
Si       0.03533301       1.11272103      -2.04383566       0.00000000
Si      -1.37933946      -1.88933049      -0.07089611       0.00000000
Si      -1.38127797       1.48354659       1.30203039       0.00000000
Si       2.31912585      -0.41897880       0.51665282       0.00000000
Si       0.11077200       0.71364861       3.12734492       0.00000000
Si       1.25219601      -0.74585394      -3.14984281       0.00000000
Si      -2.82466971      -1.39473351      -1.93592914       0.00000000
Si       0.52341399       3.40952958      -1.35872645       0.00000000
Si       2.37503313      -0.12452076       2.86459184       0.00000000
Si      -2.08093347       0.61778196      -3.04929670       0.00000000
