10
Lattice="16.28999089631971 0.0 0.0 0.0 16.28999089631971 0.0 0.0 0.0 34.71893929493243" Properties=species:S:1:pos:R:3:initial_magmoms:R:1 pbc="T T T"
Si       1.33780666       1.33295857      -1.37285012       0.00000000
Si      -1.35915615       1.35346768       1.35622668       0.00000000
Si       1.35602796      -1.36184039       1.35817095       0.00000000
Si      -1.35575154      -1.35801000      -1.39285866       0.00000000
Si       2.70975909      -2.71452717       0.00225673       0.00000000
Si      -0.00118917       2.71185820       2.71436291       0.00000000
Si       2.71583526       2.71057129      -0.00583279       0.00000000
Si      -2.71679733       2.70983824      -0.00118044       0.00000000
Si       2.71397820      -0.00311302       2.71443235       0.00000000
Si      -2.71655298      -0.00250866       2.71453650       0.00000000
