10
Lattice="16.28999089631971 0.0 0.0 0.0 16.28999089631971 0.0 0.0 0.0 34.71893929493243" Properties=species:S:1:pos:R:3:initial_magmoms:R:1 pbc="T T T"
Si      -1.48644621       0.25834963      -1.84000065       0.00000000
Si       1.52272404       1.83579666       0.12509241       0.00000000
Si       1.54942335      -1.75547134      -0.52199954       0.00000000
Si      -1.49744196      -0.86603734       1.73816995       0.00000000
Si      -1.45792242      -2.00785231      -2.34884171       0.00000000
Si      -0.79109127      -3.14440561       1.65165030       0.00000000
Si       1.39575978       2.53665762       2.38696313       0.00000000
Si       0.76615128      -2.73046042      -2.52153381       0.00000000
Si      -1.81188783      -3.33133336      -0.44943692       0.00000000
Si      -0.60838263       1.81949037      -3.43054559       0.00000000
