10
Lattice="16.28999089631971 0.0 0.0 0.0 16.28999089631971 0.0 0.0 0.0 34.71893929493243" Properties=species:S:1:pos:R:3:initial_magmoms:R:1 pbc="T T T"
Si       1.76389490       0.64571931       1.46628578       0.00000000
Si      -0.87632055      -1.27819648       1.81048954       0.00000000
Si       1.69202179       0.25479189      -1.67727289       0.00000000
Si      -1.86974991       1.31087259      -0.81881192       0.00000000
Si       0.43345314      -0.02072088       3.40665895       0.00000000
Si      -1.74278565       0.61001163      -3.08068264       0.00000000
Si       1.45619798       2.97861021       1.40823568       0.00000000
Si       0.49472797      -0.12417867      -3.67673773       0.00000000
Si      -0.13424589      -3.53273804       1.63071477       0.00000000
Si      -1.39937616       3.60020403      -0.74753390       0.00000000
