10
Lattice="16.28999089631971 0.0 0.0 0.0 16.28999089631971 0.0 0.0 0.0 34.71893929493243" Properties=species:S:1:pos:R:3:initial_magmoms:R:1 pbc="T T T"
Si      -2.30567031       0.23884887       0.50085570       0.00000000
Si       0.74207466      -2.25454156      -0.17977477       0.00000000
Si       0.87632055       1.27819648      -1.81048954       0.00000000
Si       1.30977369       1.25747560       1.59616941       0.00000000
Si       2.64021545       1.92391579      -0.34420376       0.00000000
Si      -2.38490487      -1.43171737       2.18017701       0.00000000
Si       2.80863125      -2.22018595       0.97063793       0.00000000
Si       2.55293526      -0.48965622       2.69818388       0.00000000
Si      -0.99342936       2.58906907      -2.62930146       0.00000000
Si      -2.50888806       2.41286014       1.84541681       0.00000000
