10
Lattice="16.28999089631971 0.0 0.0 0.0 16.28999089631971 0.0 0.0 0.0 34.71893929493243" Properties=species:S:1:pos:R:3:initial_magmoms:R:1 pbc="T T T"
Si      -2.32652151      -0.45281313       0.56022512       0.00000000
Si      -0.59505741       1.63012401      -1.72626135       0.00000000
Si       0.20321775      -2.17401127      -1.34456111       0.00000000
Si       2.62967841       0.83404800       0.77819074       0.00000000
Si       0.11274309       0.17124048       2.92430845       0.00000000
Si      -3.05232246       1.76370201       1.03514575       0.00000000
Si      -0.88361847       0.22853241      -3.67389077       0.00000000
Si      -2.12683869       3.10590027      -0.63587773       0.00000000
Si      -2.08358874      -3.16875428       0.69847601       0.00000000
Si       0.12398319      -3.84457751       0.33476020       0.00000000
