10
Lattice="16.28999089631971 0.0 0.0 0.0 16.28999089631971 0.0 0.0 0.0 34.71893929493243" Properties=species:S:1:pos:R:3:initial_magmoms:R:1 pbc="T T T"
Si       1.35799550      -1.35729909       1.35671275       0.00000000
Si       1.35695700       1.35783666      -1.35765016       0.00000000
Si      -1.35760860       1.35811359       1.35785847       0.00000000
Si      -1.35796698      -1.35839052      -1.35813623       0.00000000
Si       0.00118917      -2.71185820      -2.71436291       0.00000000
Si       0.00096111      -2.71263361       2.71453650       0.00000000
Si      -2.71415835      -0.00094482       2.71460594       0.00000000
Si      -2.71536381      -2.71436686       0.00017359       0.00000000
Si       2.71516737      -2.71497122       0.00006944       0.00000000
Si      -2.71487511       2.71562445       0.00013888       0.00000000
