10
Lattice="16.28999089631971 0.0 0.0 0.0 16.28999089631971 0.0 0.0 0.0 34.71893929493243" Properties=species:S:1:pos:R:3:initial_magmoms:R:1 pbc="T T T"
Si      -1.35487188       1.35666378      -1.36400373       0.00000000
Si       1.36086564      -1.35943308      -1.36351766       0.00000000
Si      -1.36730115      -1.34493498       1.37532211       0.00000000
Si       1.35722320       1.35762489       1.39354956       0.00000000
Si      -2.71168227       2.71114470      -0.00999906       0.00000000
Si       2.71683710       2.71331127      -0.00041663       0.00000000
Si      -2.71445157      -2.71573848      -0.00673548       0.00000000
Si      -2.71241532      -0.00127062      -2.72113311       0.00000000
Si       0.00251613       2.71350675      -2.72141086       0.00000000
Si       2.71871045      -2.71795392      -0.00600638       0.00000000
