10
Lattice="16.28999089631971 0.0 0.0 0.0 16.28999089631971 0.0 0.0 0.0 34.71893929493243" Properties=species:S:1:pos:R:3:initial_magmoms:R:1 pbc="T T T"
Si      -1.33457454       1.17957519      -1.51631580       0.00000000
Si      -1.88175564      -0.76589064       1.18652041       0.00000000
Si       1.35666378      -1.52296839      -1.48124965       0.00000000
Si       0.77656059       2.04537240       1.36403845       0.00000000
Si      -0.68492934      -0.80679483       3.28854505       0.00000000
Si      -2.62928745       2.58448995      -0.18508677       0.00000000
Si       2.65300569       2.64631050       0.03114291       0.00000000
Si       0.01228266       2.53311129      -2.86657082       0.00000000
Si      -2.62778877      -2.78044236      -0.07072252       0.00000000
Si      -2.70225036      -0.17798454      -2.85973119       0.00000000
