10
Lattice="16.28999089631971 0.0 0.0 0.0 16.28999089631971 0.0 0.0 0.0 34.71893929493243" Properties=species:S:1:pos:R:3:initial_magmoms:R:1 pbc="T T T"
Si      -2.27831940      -0.45077688       0.27521719       0.00000000
Si       1.18473912       1.89933255       0.79416146       0.00000000
Si       1.00247031      -1.06836336       1.93919272       0.00000000
Si       0.18376749      -0.44202915      -2.40796810       0.00000000
Si       1.46653983       1.06251525       2.96048561       0.00000000
Si       3.22997535       1.34374581      -0.35777887       0.00000000
Si       2.62088574      -2.29480488       0.73517395       0.00000000
Si       0.55721574       1.80351477      -3.15491178       0.00000000
Si       1.53860679      -3.22585983      -1.10479198       0.00000000
Si      -2.97561285      -1.53834615      -1.71150579       0.00000000
