10
Lattice="16.28999089631971 0.0 0.0 0.0 16.28999089631971 0.0 0.0 0.0 34.71893929493243" Properties=species:S:1:pos:R:3:initial_magmoms:R:1 pbc="T T T"
Si      -0.28180071       0.83681730      -2.16632415       0.00000000
Si      -2.09756556       0.57951675       0.95931955       0.00000000
Si       1.92374053       1.22031648       0.68587303       0.00000000
Si      -0.46406952      -2.13087861      -1.02129289       0.00000000
Si      -1.46653983      -1.06251525      -2.96048561       0.00000000
Si       0.98052672       3.45514158       0.32437923       0.00000000
Si      -2.68555311      -1.39685121       2.08758155       0.00000000
Si      -2.16585324      -3.01762476       0.45846385       0.00000000
Si       1.76343552       0.28123056      -3.31826448       0.00000000
Si      -2.03434407       2.26839879       2.59520744       0.00000000
