10
Lattice="16.28999089631971 0.0 0.0 0.0 16.28999089631971 0.0 0.0 0.0 34.71893929493243" Properties=species:S:1:pos:R:3:initial_magmoms:R:1 pbc="T T T"
Si       2.23197435      -0.37685286       0.57345304       0.00000000
Si      -0.79678951       2.20362975       0.12766161       0.00000000
Si      -1.40587913      -1.43492094       1.22061443       0.00000000
Si       0.01646919      -0.68714478      -2.25513524       0.00000000
Si      -2.48815808      -2.36597589      -0.61935150       0.00000000
Si       1.18389204       3.26265894       0.75746352       0.00000000
Si       2.13723171       0.26712342       2.85879378       0.00000000
Si       2.61851976      -2.53314387      -0.36944444       0.00000000
Si      -1.02244999       2.83680576      -2.18635699       0.00000000
Si      -2.29249889      -1.34219826      -2.74578357       0.00000000
