10
Lattice="16.28999089631971 0.0 0.0 0.0 16.28999089631971 0.0 0.0 0.0 34.71893929493243" Properties=species:S:1:pos:R:3:initial_magmoms:R:1 pbc="T T T"
Si       1.33578979       1.38266262      -1.33777703       0.00000000
Si       1.35562122      -1.35653346       1.35820566       0.00000000
Si      -1.35721764       1.35529542       1.35813623       0.00000000
Si      -1.36080144      -1.36337526      -1.35970205       0.00000000
Si       2.65304871       0.01729998      -2.64791429       0.00000000
Si       2.71423558      -2.71072116      -0.00270808       0.00000000
Si      -2.71507059      -2.71342530      -0.00045135       0.00000000
Si       2.71050843       2.71894761       0.00305527       0.00000000
Si      -0.00058644      -2.71441899       2.71519616       0.00000000
Si       2.71466238       0.00045612       2.71509201       0.00000000
