10
Lattice="16.28999089631971 0.0 0.0 0.0 16.28999089631971 0.0 0.0 0.0 34.71893929493243" Properties=species:S:1:pos:R:3:initial_magmoms:R:1 pbc="T T T"
Si       0.10169847      -1.84827969       1.63474217       0.00000000
Si      -2.16539712      -1.01856483      -0.90717167       0.00000000
Si      -0.32320989       2.15094789       1.34897042       0.00000000
Si       1.75689279      -0.25014924      -2.07720058       0.00000000
Si       2.81299045       0.13738986       0.14321570       0.00000000
Si      -0.06654465      -1.26286596      -3.61622258       0.00000000
Si       0.96956451       3.72299805      -0.10721214       0.00000000
Si      -1.27294947      -2.81150739      -2.32474676       0.00000000
Si       1.23869160      -3.74195961       0.17203244       0.00000000
Si      -2.13312663      -2.31490674       2.41446054       0.00000000
