10
Lattice="16.28999089631971 0.0 0.0 0.0 16.28999089631971 0.0 0.0 0.0 34.71893929493243" Properties=species:S:1:pos:R:3:initial_magmoms:R:1 pbc="T T T"
Si       2.00146338       0.97875207       0.58668096       0.00000000
Si       0.64198890      -2.22716880       0.42610578       0.00000000
Si      -1.12252761      -0.42930666      -2.06025773       0.00000000
Si      -1.27410606       1.26410400       1.61311226       0.00000000
Si      -3.18816477       0.30838599       0.75874812       0.00000000
Si       1.90431633       0.39115548       2.91680916       0.00000000
Si       1.78614053       3.18461355      -0.22400672       0.00000000
Si      -3.35735271      -0.89593371      -1.28053935       0.00000000
Si      -0.31063401       0.89792109       3.77627698       0.00000000
Si       2.68722513      -2.78275554      -0.72583455       0.00000000
