10
Lattice="16.28999089631971 0.0 0.0 0.0 16.28999089631971 0.0 0.0 0.0 34.71893929493243" Properties=species:S:1:pos:R:3:initial_magmoms:R:1 pbc="T T T"
Si       1.12252761       0.42930666       2.06025773       0.00000000
Si      -2.23482510      -0.46662705       0.77971837       0.00000000
Si      -0.10169847       1.84827969      -1.63474217       0.00000000
Si       1.13699313      -1.89367992      -1.46270973       0.00000000
Si      -2.26709559       0.82971486      -2.54191384       0.00000000
Si       1.76451651      -1.79786214       2.48636351       0.00000000
Si      -2.06563716       0.73769265       2.81900585       0.00000000
Si       2.71129198       1.98566955      -1.49152647       0.00000000
Si      -3.87695484      -0.11212407      -1.01695302       0.00000000
Si      -0.42490836       3.99922758      -0.28577175       0.00000000
