10
Lattice="16.28999089631971 0.0 0.0 0.0 16.28999089631971 0.0 0.0 0.0 34.71893929493243" Properties=species:S:1:pos:R:3:initial_magmoms:R:1 pbc="T T T"
Si       1.35640314      -1.35723393       1.35577534       0.00000000
Si      -1.35650088       1.35544203       1.35924723       0.00000000
Si      -1.35733167      -1.35707103      -1.35744185       0.00000000
Si       1.35775472       1.35775521      -1.35744185       0.00000000
Si       0.01181025      -2.71759554       2.70550958       0.00000000
Si       2.71421766      -2.71239903       0.00041663       0.00000000
Si      -2.69376327       0.00017919       2.73311115       0.00000000
Si      -2.71360449      -2.71409319       0.00006944       0.00000000
Si      -0.00076563      -2.71393029      -2.71443235       0.00000000
Si       2.71448319       0.00094482      -2.71453650       0.00000000
