10
Lattice="16.28999089631971 0.0 0.0 0.0 16.28999089631971 0.0 0.0 0.0 34.71893929493243" Properties=species:S:1:pos:R:3:initial_magmoms:R:1 pbc="T T T"
Si      -1.33726239      -1.35526284       1.37386391       0.00000000
Si       1.35650088      -1.35544203      -1.35924723       0.00000000
Si      -1.35827649       1.36019871      -1.35730297       0.00000000
Si       1.34910522       1.36440153       1.39306350       0.00000000
Si      -2.64787434       0.10388133       2.67110309       0.00000000
Si       2.71290402      -2.71267596      -0.00347190       0.00000000
Si      -0.00083079      -2.71251306      -2.71668908       0.00000000
Si       2.71425560       0.00231318      -2.71668908       0.00000000
Si       2.71538010       2.71601619       0.00461762       0.00000000
Si      -2.71782360      -2.71423980       0.00180539       0.00000000
