10
Lattice="16.28999089631971 0.0 0.0 0.0 16.28999089631971 0.0 0.0 0.0 34.71893929493243" Properties=species:S:1:pos:R:3:initial_magmoms:R:1 pbc="T T T"
Si       2.16832932      -0.80796771      -0.16380405       0.00000000
Si       0.05584212       2.00195955       1.23280079       0.00000000
Si      -1.90368198      -1.07150733      -0.87432754       0.00000000
Si      -1.51049025      -2.67584427       1.10753478       0.00000000
Si       3.18282165       1.17913536      -1.12715099       0.00000000
Si       0.13507668       3.67252578      -0.44652053       0.00000000
Si      -2.15172981       2.67778278       1.59651660       0.00000000
Si      -1.95958926      -1.36596537      -3.22226656       0.00000000
Si       1.25744139      -0.31718259       3.81648153       0.00000000
Si       3.20466654      -1.95436017       1.68216827       0.00000000
