10
Lattice="16.28999089631971 0.0 0.0 0.0 16.28999089631971 0.0 0.0 0.0 34.71893929493243" Properties=species:S:1:pos:R:3:initial_magmoms:R:1 pbc="T T T"
Si      -1.35781452       1.35516510       1.35535871       0.00000000
Si       1.35762163       1.35625653      -1.35719881       0.00000000
Si      -1.35751383      -1.35887922      -1.35730297       0.00000000
Si       1.35680713      -1.35907470       1.36369126       0.00000000
Si      -2.70240741      -0.00519651       2.70509295       0.00000000
Si      -2.71421766       2.71239903      -0.00041663       0.00000000
Si       0.00026553       2.71334385      -2.71495313       0.00000000
Si      -2.71498329      -0.00153126      -2.71484898       0.00000000
Si       2.71527910      -0.00200367      -2.71530032       0.00000000
Si      -2.71490184      -2.71572219       0.00010416       0.00000000
