10
Lattice="16.28999089631971 0.0 0.0 0.0 16.28999089631971 0.0 0.0 0.0 34.71893929493243" Properties=species:S:1:pos:R:3:initial_magmoms:R:1 pbc="T T T"
Si      -0.22519296       0.66065724      -2.20944509       0.00000000
Si       2.04009444       1.03413807       0.66781917       0.00000000
Si      -2.04556951       0.54071397       1.16489050       0.00000000
Si       0.72814671      -2.33487828      -0.10811484       0.00000000
Si       2.45289933      -0.56431818       2.35672292       0.00000000
Si      -1.09143000       0.65656845       3.32850657       0.00000000
Si      -2.20587451      -0.39837195      -2.83924700       0.00000000
Si       3.30162462       1.00939356      -1.46527893       0.00000000
Si       1.86579144       0.46954296      -3.31961852       0.00000000
Si       2.78739819      -2.43032139       1.02757702       0.00000000
