10
Lattice="16.28999089631971 0.0 0.0 0.0 16.28999089631971 0.0 0.0 0.0 34.71893929493243" Properties=species:S:1:pos:R:3:initial_magmoms:R:1 pbc="T T T"
Si       0.95413951       0.11585448       2.16361607       0.00000000
Si      -1.92374053      -1.22031648      -0.68587303       0.00000000
Si       2.04556951      -0.54071397      -1.16489050       0.00000000
Si      -0.94321381       2.23482510      -0.36149380       0.00000000
Si       1.91873557       2.32194402       2.01165119       0.00000000
Si      -2.20554124      -0.38349918      -2.85219718       0.00000000
Si       0.60139585       3.68228934       0.58918073       0.00000000
Si       1.82037655       0.11994327      -3.37433560       0.00000000
Si      -0.62269665      -0.59854347       3.76766668       0.00000000
Si      -0.84606676       2.82242169      -2.69162199       0.00000000
