10
Lattice="16.28999089631971 0.0 0.0 0.0 16.28999089631971 0.0 0.0 0.0 34.71893929493243" Properties=species:S:1:pos:R:3:initial_magmoms:R:1 pbc="T T T"
Si      -1.70344530      -0.92929563      -1.20038855       0.00000000
Si      -1.27687536       1.40007663       1.27294632       0.00000000
Si       1.43436708      -1.33389036       1.22403078       0.00000000
Si       0.95808006       1.57689548      -1.39642395       0.00000000
Si      -0.29093940      -1.86261489      -2.83612373       0.00000000
Si       2.63168208       2.55588212      -0.06484460       0.00000000
Si      -2.64644897       0.03150486       2.58852057       0.00000000
Si      -3.29993372       0.85398696      -1.45246108       0.00000000
Si       0.07219728      -2.68587891       2.58376407       0.00000000
Si      -2.59392675       2.69452143      -0.11468366       0.00000000
