10
Lattice="16.28999089631971 0.0 0.0 0.0 16.28999089631971 0.0 0.0 0.0 34.71893929493243" Properties=species:S:1:pos:R:3:initial_magmoms:R:1 pbc="T T T"
Si       1.35727419       1.35650088       1.35685162       0.00000000
Si       1.35672847      -1.35681039      -1.35709466       0.00000000
Si      -1.35781988       1.35773892      -1.35653915       0.00000000
Si      -1.35775472      -1.35775521       1.35744185       0.00000000
Si      -0.00115661       2.71436788      -2.71321718       0.00000000
Si      -0.00231269      -2.71379997      -2.71398100       0.00000000
Si       2.71408458      -2.71389771       0.00065966       0.00000000
Si      -0.00135158      -2.71498914       2.71321718       0.00000000
Si       2.71392168       0.00128691      -2.71443235       0.00000000
Si       2.71343298      -0.00008145       2.71502257       0.00000000
