10
Lattice="16.28999089631971 0.0 0.0 0.0 16.28999089631971 0.0 0.0 0.0 34.71893929493243" Properties=species:S:1:pos:R:3:initial_magmoms:R:1 pbc="T T T"
Si       1.35733167       1.35570267      -1.35671275       0.00000000
Si      -1.35845568       1.35452979       1.35817095       0.00000000
Si      -1.35780408      -1.35928647      -1.35619196       0.00000000
Si       1.35759231      -1.36023129       1.36334407       0.00000000
Si      -2.71461447       2.71111212       0.00000000       0.00000000
Si      -0.00022806       2.71298547      -2.71370325       0.00000000
Si      -2.71516019      -0.00219915      -2.71394628       0.00000000
Si       2.71585251       2.71384884       0.00020831       0.00000000
Si       2.71565703      -0.00242721      -2.71425875       0.00000000
Si      -2.71542571      -2.71554300       0.00100685       0.00000000
