10
Lattice="16.28999089631971 0.0 0.0 0.0 16.28999089631971 0.0 0.0 0.0 34.71893929493243" Properties=species:S:1:pos:R:3:initial_magmoms:R:1 pbc="T T T"
Si       1.24623876      -1.41648066      -1.47093812       0.00000000
Si      -1.47249612       1.29720528      -1.44909990       0.00000000
Si      -0.86465106      -1.75521492       1.45854345       0.00000000
Si       1.82959180       1.02376134       1.42632426       0.00000000
Si       2.53139758      -2.73955446       0.03058740       0.00000000
Si       2.60608723      -0.06496452      -2.84382991       0.00000000
Si      -2.68808850      -2.76793164      -0.08047855       0.00000000
Si      -0.10622124       2.64881994      -2.83754578       0.00000000
Si       2.77791415       2.75798498       0.01524162       0.00000000
Si       3.55356250      -0.94556934       1.36754506       0.00000000
