10
Lattice="16.28999089631971 0.0 0.0 0.0 16.28999089631971 0.0 0.0 0.0 34.71893929493243" Properties=species:S:1:pos:R:3:initial_magmoms:R:1 pbc="T T T"
Si       0.94832235       1.73422364      -1.41108264       0.00000000
Si      -1.82959180      -1.02376134      -1.42632426       0.00000000
Si       1.72397070      -1.96933068      -0.05877920       0.00000000
Si      -1.13202142       1.35843939       2.08883143       0.00000000
Si      -0.67481977      -0.56250999       3.34135259       0.00000000
Si       2.13203520       0.27976446      -2.90434505       0.00000000
Si      -1.63814521      -2.39143716       2.25263548       0.00000000
Si       2.77620696       2.49068466       0.06738950       0.00000000
Si      -0.58335304      -2.44024200      -2.89726238       0.00000000
Si      -2.69424287      -2.77897626       0.03221919       0.00000000
