10
Lattice="16.290000149 0.0 0.0 0.0 16.290000149 0.0 0.0 0.0 29.1751946751" Properties=species:S:1:pos:R:3:initial_magmoms:R:1 pbc="T T T"
Si       1.32742650      -1.36161595       1.37467682       0.00000000
Si      -1.37078396      -1.36849033      -1.32458301       0.00000000
Si      -1.36573406       1.35013150       1.34981956       0.00000000
Si       1.36663653       1.36686133      -1.34401369       0.00000000
Si      -2.69576371       0.01620855      -2.68379698       0.00000000
Si       0.00953780      -2.71633635      -2.66503733       0.00000000
Si       2.68410658       0.00532683       2.71168847       0.00000000
Si      -0.02243459       2.70982523       2.70369447       0.00000000
Si       2.72608591       0.01159848      -2.69692582       0.00000000
Si       2.71152265      -2.71595842       0.04055352       0.00000000
