10
Lattice="16.290000149 0.0 0.0 0.0 16.290000149 0.0 0.0 0.0 29.1751946751" Properties=species:S:1:pos:R:3:initial_magmoms:R:1 pbc="T T T"
Si      -1.06709275      -1.16996410       1.70817847       0.00000000
Si       0.88151707      -1.77935672      -1.28277496       0.00000000
Si       1.86981509       1.46870641       0.15961749       0.00000000
Si      -1.60316407       1.30018636      -1.20190132       0.00000000
H        0.47635218       2.31656834       1.79946766       0.00000000
H       -1.22077261      -0.37265004       2.98316366       0.00000000
H        2.58851360       1.55419633       1.48376288       0.00000000
Si       1.99664903      -0.33296760      -2.83142347       0.00000000
Si      -3.29385432      -1.14174982       0.92689593       0.00000000
Si      -0.28994571       2.66323583      -2.58711039       0.00000000
