10
Lattice="16.290000149 0.0 0.0 0.0 16.290000149 0.0 0.0 0.0 29.1751946751" Properties=species:S:1:pos:R:3:initial_magmoms:R:1 pbc="T T T"
Si       1.55971864       0.76292587       1.59314068       0.00000000
Si      -0.91813699      -1.82443115       1.18177044       0.00000000
Si       1.14005566       0.11613141      -2.06426172       0.00000000
Si      -1.92223631       1.50584761      -0.30140894       0.00000000
Si      -1.94246849      -0.32801544       2.65150004       0.00000000
H       -2.81771391       0.53698356       1.77087597       0.00000000
H        1.85678309      -2.85723345      -0.12562839       0.00000000
Si      -0.04409703       0.97593391       3.27876673       0.00000000
Si       2.31756203       2.68898381       0.52623299       0.00000000
Si       2.67564881       1.95401810      -1.66441568       0.00000000
