10
Lattice="16.290000149 0.0 0.0 0.0 16.290000149 0.0 0.0 0.0 29.1751946751" Properties=species:S:1:pos:R:3:initial_magmoms:R:1 pbc="T T T"
Si       0.34425657      -0.88158223      -2.13530332       0.00000000
Si      -1.82503388       1.45176481       0.16489820       0.00000000
Si       1.62039889       1.68946850       0.06567336       0.00000000
Si       0.22483458      -1.50799789       1.84232602       0.00000000
H       -0.90797203      -1.44645427       2.84592354       0.00000000
Si       1.07215894       2.72642475       2.07587345       0.00000000
Si       2.29140029      -0.81397873       2.73704171       0.00000000
Si       1.39779604       0.88236415      -3.31789066       0.00000000
Si      -3.65497104       0.15745914       0.80342651       0.00000000
H       -1.83938537       0.30178854       3.28839454       0.00000000
