10
Lattice="16.290000149 0.0 0.0 0.0 16.290000149 0.0 0.0 0.0 29.1751946751" Properties=species:S:1:pos:R:3:initial_magmoms:R:1 pbc="T T T"
Si      -1.27116638       1.36055710       1.42302012       0.00000000
Si       1.34762773      -1.33648048       1.37575630       0.00000000
Si       1.34024836       1.37039626      -1.36289004       0.00000000
Si      -1.38049118      -1.35998695      -1.33403578       0.00000000
Si       2.66262170       0.12803940       2.65692663       0.00000000
Si       0.01570845      -2.69696591      -2.68163802       0.00000000
Si      -2.66308434       2.71619462       0.07145005       0.00000000
Si      -2.68439166       0.02098152      -2.70923775       0.00000000
Si      -0.06154525      -2.63412886       2.76210321       0.00000000
Si       2.71815431       0.02565675      -2.72058690       0.00000000
