10
Lattice="16.290000149 0.0 0.0 0.0 16.290000149 0.0 0.0 0.0 29.1751946751" Properties=species:S:1:pos:R:3:initial_magmoms:R:1 pbc="T T T"
Si       1.35435061      -1.36741519       1.33715752       0.00000000
Si      -1.35668008      -1.36694278      -1.33701165       0.00000000
Si       1.37401264       1.33799545      -1.36163551       0.00000000
Si      -1.37790595       1.34473951       1.35769686       0.00000000
Si       2.64771146       0.06933024       2.65009963       0.00000000
Si       0.02741607      -2.72128525      -2.67113495       0.00000000
Si      -2.68410658      -0.00532683      -2.71168847       0.00000000
Si      -2.70654117       2.70449840      -0.00799400       0.00000000
Si      -2.70244586      -2.72262266       0.03894888       0.00000000
Si       0.03160260       2.72187983      -2.70547415       0.00000000
