10
Lattice="16.290000149 0.0 0.0 0.0 16.290000149 0.0 0.0 0.0 29.1751946751" Properties=species:S:1:pos:R:3:initial_magmoms:R:1 pbc="T T T"
H       -0.17534556       1.38735904       0.61072435       0.00000000
Si       0.84038482      -1.24886797       1.70497504       0.00000000
Si       1.90014707       0.02149303      -1.32464136       0.00000000
Si      -1.88843456      -0.54583555      -1.30150543       0.00000000
Si      -2.61483824       1.64377993      -0.89316941       0.00000000
Si       0.67886947       1.14488239      -2.94444817       0.00000000
Si      -0.67579066       2.67307988      -1.78896459       0.00000000
Si       1.87204682       0.60271209       2.67022760       0.00000000
Si       2.34835013      -2.26753055      -1.05865111       0.00000000
Si      -0.99422758      -2.26863827       2.64379779       0.00000000
