10
Lattice="16.290000149 0.0 0.0 0.0 16.290000149 0.0 0.0 0.0 29.1751946751" Properties=species:S:1:pos:R:3:initial_magmoms:R:1 pbc="T T T"
Si       0.64237987      -0.41811543       2.13537334       0.00000000
Si      -1.06764661      -1.75811456      -1.06763707       0.00000000
Si      -1.69813478       1.60013413      -0.02336933       0.00000000
Si       1.78575869       0.57593296      -1.44691460       0.00000000
Si      -0.30978693       3.03660264      -1.20146369       0.00000000
H        3.11070585       1.08856297      -0.51149951       0.00000000
H       -0.56720152      -3.04383540       1.33205186       0.00000000
Si      -1.98731486      -0.71917093      -2.90838763       0.00000000
Si      -1.26268678      -1.21619512       3.25049013       0.00000000
Si       0.76233943       1.91951588      -3.06336627       0.00000000
