10
Lattice="16.290000149 0.0 0.0 0.0 16.290000149 0.0 0.0 0.0 29.1751946751" Properties=species:S:1:pos:R:3:initial_magmoms:R:1 pbc="T T T"
Si       1.37913422      -1.45580148       1.15177834       0.00000000
Si      -1.23400587      -1.35971784      -1.44364698       0.00000000
Si       1.40917298       1.29764838      -1.38634690       0.00000000
Si      -1.21630182       1.28272674       1.60921621       0.00000000
H        1.62811058       1.51477779       2.11905274       0.00000000
Si       2.24113587       0.20272254       2.53914637       0.00000000
Si      -2.50384796       2.63463385       0.10587678       0.00000000
Si      -2.54670695      -2.69656192      -0.07783942       0.00000000
Si       0.06154525       2.63412886      -2.76210321       0.00000000
Si      -2.70136421      -0.06479836      -2.71609392       0.00000000
