10
Lattice="16.290000149 0.0 0.0 0.0 16.290000149 0.0 0.0 0.0 29.1751946751" Properties=species:S:1:pos:R:3:initial_magmoms:R:1 pbc="T T T"
Si       0.89032996       0.07025877      -1.22885920       0.00000000
H       -1.31036761      -1.74294857      -0.43453535       0.00000000
H        1.87851395       0.44535231       1.23527774       0.00000000
Si      -1.85512151      -1.99897850       0.94810630       0.00000000
Si      -0.00180819       1.48885714      -2.82121215       0.00000000
Si       1.18166032       2.95775089       0.24798915       0.00000000
Si       1.21743316      -2.05154633      -2.16004389       0.00000000
Si       2.77399155       1.41421636      -0.83700716       0.00000000
Si      -2.71033022      -0.12290805       2.06411585       0.00000000
H       -2.91335250      -0.93577906      -1.60869106       0.00000000
