10
Lattice="16.290000149 0.0 0.0 0.0 16.290000149 0.0 0.0 0.0 29.1751946751" Properties=species:S:1:pos:R:3:initial_magmoms:R:1 pbc="T T T"
Si       1.36790389       1.35728281       1.32890094       0.00000000
Si       1.37148769      -1.35593074      -1.33243114       0.00000000
Si      -1.34241004       1.38388438      -1.34383864       0.00000000
Si      -1.37401264      -1.33799545       1.36163551       0.00000000
Si      -0.07030764       2.69040755       2.61068395       0.00000000
Si      -0.00325800      -2.70257618      -2.67434422       0.00000000
Si      -2.69148269       0.02353905      -2.69406665       0.00000000
Si      -0.01966203      -2.70541064       2.69879303       0.00000000
Si       2.72026712       0.01036044      -2.68849419       0.00000000
Si       2.72054405       2.70974378      -0.03308467       0.00000000
