10
Lattice="16.290000149 0.0 0.0 0.0 16.290000149 0.0 0.0 0.0 29.1751946751" Properties=species:S:1:pos:R:3:initial_magmoms:R:1 pbc="T T T"
Si      -0.22358025       2.13597740       0.91429225       0.00000000
Si      -1.81804547      -0.75847870      -1.37989918       0.00000000
Si       0.34171533      -1.95300812       1.36682870       0.00000000
Si       2.12525858       0.58277476      -1.00441443       0.00000000
H        2.21558663      -0.24381243       1.56720393       0.00000000
H       -1.35638686       2.19752102       1.91788977       0.00000000
H        2.86954869      -0.66176497       1.61251301       0.00000000
Si       1.95370859      -2.74082511      -0.15287802       0.00000000
H       -1.05174757      -1.10514619       3.00667886       0.00000000
H        1.06041385      -1.86751820       2.69097408       0.00000000
