10
Lattice="16.290000149 0.0 0.0 0.0 16.290000149 0.0 0.0 0.0 29.1751946751" Properties=species:S:1:pos:R:3:initial_magmoms:R:1 pbc="T T T"
Si       1.24659226      -1.37194381       1.41441927       0.00000000
Si       1.90506665       0.79807969      -1.11511679       0.00000000
Si      -1.28756161       1.45104805       1.32280916       0.00000000
Si      -1.83415628      -0.88013242      -1.19266445       0.00000000
H        0.69548527      -1.82764028      -1.91843827       0.00000000
Si       1.26268678       1.21619512      -3.25049013       0.00000000
Si       2.67245597       0.05738967       2.64307425       0.00000000
Si      -2.71244792       0.05745483       2.60272495       0.00000000
Si       2.74287765      -2.61228723       0.14106498       0.00000000
Si      -3.46631655       0.85527388      -1.27766347       0.00000000
