10
Lattice="16.290000149 0.0 0.0 0.0 16.290000149 0.0 0.0 0.0 29.1751946751" Properties=species:S:1:pos:R:3:initial_magmoms:R:1 pbc="T T T"
Si      -1.14005566      -0.11613141       2.06426172       0.00000000
Si      -1.52520013       1.01537200      -1.49306976       0.00000000
Si       1.00260064      -1.76239883      -1.25520440       0.00000000
Si       1.53559315       1.83788669       0.39984604       0.00000000
H       -2.04895622      -2.78575293      -0.89900445       0.00000000
Si       2.30167928      -0.45616887      -2.74669870       0.00000000
H        0.71672743      -2.97336486       1.93863334       0.00000000
Si      -2.54027891       2.64223802      -0.16650284       0.00000000
Si      -0.23641677       2.45668547      -2.77313143       0.00000000
Si       0.41966298       0.64679446       3.65740240       0.00000000
