10
Lattice="16.290000149 0.0 0.0 0.0 16.290000149 0.0 0.0 0.0 29.1751946751" Properties=species:S:1:pos:R:3:initial_magmoms:R:1 pbc="T T T"
Si      -2.23283774       0.49562325      -0.32772496       0.00000000
Si       0.89213815      -1.41859837       1.59235295       0.00000000
Si       0.54823995      -1.03695625      -2.01020009       0.00000000
Si       1.24164010       1.78849704      -0.84129591       0.00000000
H        0.00180819      -1.48885714       2.82121215       0.00000000
Si       0.59776156       1.10993056      -2.98751076       0.00000000
Si       2.77579974      -0.07464078       1.98420499       0.00000000
Si       3.29781279       1.17788104       0.05484937       0.00000000
Si      -1.07215894      -2.72642475      -2.07587345       0.00000000
Si       1.18346851       1.46889375       3.06920130       0.00000000
