10
Lattice="16.290000149 0.0 0.0 0.0 16.290000149 0.0 0.0 0.0 29.1751946751" Properties=species:S:1:pos:R:3:initial_magmoms:R:1 pbc="T T T"
H       -0.64658269      -0.82938907       1.07446407       0.00000000
Si       1.23906628      -1.36546039      -1.41619312       0.00000000
Si      -1.57736071       1.08773218      -1.32248240       0.00000000
Si       1.27422010       1.46318410       1.29902554       0.00000000
H       -2.08679789      -1.73830592       0.53346843       0.00000000
Si      -3.17979174       1.01449234       0.46601538       0.00000000
H       -1.27767358      -2.49909779       2.17851179       0.00000000
Si       2.50662377      -0.03240081       2.65858961       0.00000000
Si      -0.28173555       2.68014485      -2.59717583       0.00000000
Si       2.56002239      -2.74144413      -0.08099034       0.00000000
