10
Lattice="16.290000149 0.0 0.0 0.0 16.290000149 0.0 0.0 0.0 29.1751946751" Properties=species:S:1:pos:R:3:initial_magmoms:R:1 pbc="T T T"
Si       1.38663739      -1.35008263      -1.35232862       0.00000000
Si      -1.35226549      -1.38293956       1.35396243       0.00000000
Si       1.41115384       1.35755974       1.32128622       0.00000000
Si      -1.33188670       1.31763295      -1.44043771       0.00000000
Si      -2.69099399      -2.67136454      -0.07533035       0.00000000
H       -1.11042415       2.93075022       2.13997135       0.00000000
Si       2.70159878      -0.05572809       2.68169637       0.00000000
Si       0.07490142       2.42088950       2.94118055       0.00000000
Si       2.72727182       2.68840388      -0.11953077       0.00000000
Si       0.04158837      -2.67442706      -2.76049857       0.00000000
