10
Lattice="16.290000149 0.0 0.0 0.0 16.290000149 0.0 0.0 0.0 29.1751946751" Properties=species:S:1:pos:R:3:initial_magmoms:R:1 pbc="T T T"
Si      -1.37119447       1.34565175       1.33759515       0.00000000
Si      -1.38846187      -1.34873056      -1.32309508       0.00000000
Si       1.36275625      -1.36679617       1.33479433       0.00000000
Si       1.36984240       1.35953083      -1.33733257       0.00000000
Si       0.00827532       2.67981905       2.68166719       0.00000000
Si      -0.06058251      -2.77071400      -2.60712457       0.00000000
Si      -0.00136836      -2.71552511       2.68394286       0.00000000
Si       2.69796611       0.00125433      -2.70243993       0.00000000
Si      -2.71997390      -0.02063943       2.69365820       0.00000000
Si       2.72373689      -0.02401146       2.69762603       0.00000000
