10
Lattice="16.290000149 0.0 0.0 0.0 16.290000149 0.0 0.0 0.0 29.1751946751" Properties=species:S:1:pos:R:3:initial_magmoms:R:1 pbc="T T T"
Si      -1.35851922      -1.35193969       1.35390408       0.00000000
Si      -1.38839671       1.35009892      -1.33012630       0.00000000
Si       1.31849632      -1.36111096      -1.39148173       0.00000000
Si       1.37002159       1.36073629       1.35200770       0.00000000
Si      -0.01361844       2.69956253      -2.68044184       0.00000000
Si       2.68468976      -2.71959923      -0.06357275       0.00000000
Si       0.01078398      -2.69628824       2.71084239       0.00000000
Si       2.68583006      -0.01619226      -2.73459100       0.00000000
Si      -2.69766618       0.01034415       2.72601349       0.00000000
Si      -2.70331601      -0.01503567      -2.72437968       0.00000000
