10
Lattice="16.290000149 0.0 0.0 0.0 16.290000149 0.0 0.0 0.0 29.1751946751" Properties=species:S:1:pos:R:3:initial_magmoms:R:1 pbc="T T T"
Si      -1.41841918       1.37184607      -1.25552533       0.00000000
Si      -1.30113118      -1.23846355       1.50053861       0.00000000
Si       1.18353367      -1.44976114      -1.41307138       0.00000000
Si       1.85717405       0.93076174       1.10398937       0.00000000
Si       3.45833445      -0.84585826       1.01459657       0.00000000
Si      -0.04404816       2.69431715      -2.61920310       0.00000000
Si       2.57784365      -2.73393444      -0.05347813       0.00000000
Si       2.56622888      -0.11326437      -2.75437178       0.00000000
Si      -2.77622328      -0.00889434      -2.60464468       0.00000000
Si       0.14328684      -2.59011002       2.78742727       0.00000000
