10
Lattice="16.290000149 0.0 0.0 0.0 16.290000149 0.0 0.0 0.0 29.1751946751" Properties=species:S:1:pos:R:3:initial_magmoms:R:1 pbc="T T T"
Si      -1.43716897       1.34609484      -1.25861790       0.00000000
Si      -1.37935576      -1.34431597       1.33374402       0.00000000
Si       1.34869798       1.38765226       1.33785773       0.00000000
Si       1.35404110      -1.33006222      -1.39962161       0.00000000
Si      -0.10448406       2.68872968      -2.58258823       0.00000000
Si      -0.00917127      -2.69223203       2.67469432       0.00000000
Si       2.70213635      -2.67473657      -0.03638147       0.00000000
Si       2.70920621       0.03393207       2.68963202       0.00000000
Si      -2.72950355       0.03253113       2.68181307       0.00000000
Si      -0.06687045      -2.78720274      -2.62907015       0.00000000
