10
Lattice="16.290000149 0.0 0.0 0.0 16.290000149 0.0 0.0 0.0 29.1751946751" Properties=species:S:1:pos:R:3:initial_magmoms:R:1 pbc="T T T"
Si      -1.88366159      -1.34395759      -0.39185204       0.00000000
Si       0.52201305       1.25252182      -1.92935562       0.00000000
H       -0.89547760      -0.96886405       2.07228490       0.00000000
Si       1.92223631      -1.50584761       0.30140894       0.00000000
Si      -1.59233122       1.54353453       1.08499631       0.00000000
H       -2.77399155      -1.41421636       0.83700716       0.00000000
Si       0.20865861       2.88249924       1.69437861       0.00000000
Si      -2.77579974       0.07464078      -1.98420499       0.00000000
Si      -0.02023218      -1.83386306       2.95290898       0.00000000
Si       1.53709183      -0.37434420      -3.25592255       0.00000000
