10
Lattice="16.290000149 0.0 0.0 0.0 16.290000149 0.0 0.0 0.0 29.1751946751" Properties=species:S:1:pos:R:3:initial_magmoms:R:1 pbc="T T T"
Si       1.42793254       1.38852703       1.17800684       0.00000000
Si      -1.31882212       1.44122518      -1.27682322       0.00000000
Si       1.43521417      -1.32035338      -1.28216228       0.00000000
Si      -1.38269521      -1.33649677       1.34130040       0.00000000
Si       0.05717790      -2.65882124      -2.61494352       0.00000000
Si      -2.66854637       0.08105904      -2.62468804       0.00000000
Si       0.01161477      -2.62067006       2.70089365       0.00000000
Si      -2.56622888       0.11326437       2.75437178       0.00000000
Si       2.72214047       0.09400959       2.60493643       0.00000000
Si       0.06887412       2.80223841      -2.59002791       0.00000000
