10
Lattice="16.290000149 0.0 0.0 0.0 16.290000149 0.0 0.0 0.0 29.1751946751" Properties=species:S:1:pos:R:3:initial_magmoms:R:1 pbc="T T T"
H        0.01663209      -1.14196159      -0.98081169       0.00000000
Si       2.20615309       0.22507893       0.63622347       0.00000000
Si      -1.61396434      -0.65345707       1.56936290       0.00000000
Si      -0.47716668       2.11496330      -0.93976220       0.00000000
H        0.53553375      -1.94023676       1.45009470       0.00000000
H       -1.91930411       2.41191371      -0.50627715       0.00000000
H        1.05641628       0.75430846      -3.06164493       0.00000000
Si      -3.14020704      -1.35132067      -0.08492899       0.00000000
Si       3.05716062      -2.06088050       0.33755700       0.00000000
Si       3.48045627      -0.11790702      -1.28003249       0.00000000
