10
Lattice="16.290000149 0.0 0.0 0.0 16.290000149 0.0 0.0 0.0 29.1751946751" Properties=species:S:1:pos:R:3:initial_magmoms:R:1 pbc="T T T"
Si       1.37484343      -1.34711948       1.33584464       0.00000000
Si       1.36412461       1.34872893      -1.34914853       0.00000000
Si      -1.35154873      -1.36875260      -1.35063646       0.00000000
Si      -1.34991973       1.34942940       1.37292631       0.00000000
Si       0.02052540      -2.70335973       2.66918021       0.00000000
Si       0.00136836       2.71552511      -2.68394286       0.00000000
Si      -2.73476523      -0.00902466      -2.67198103       0.00000000
Si      -2.71860554       2.69488568       0.00971534       0.00000000
Si       2.72510525       2.69151365       0.01368317       0.00000000
Si       2.72665280      -0.01363147      -2.69459180       0.00000000
