10
Lattice="16.290000149 0.0 0.0 0.0 16.290000149 0.0 0.0 0.0 29.1751946751" Properties=species:S:1:pos:R:3:initial_magmoms:R:1 pbc="T T T"
Si      -1.36412461      -1.34872893       1.34914853       0.00000000
Si      -1.36275625       1.36679617      -1.33479433       0.00000000
Si       1.36098064       1.34278471       1.36283169       0.00000000
Si       1.36252819      -1.36236041      -1.34544328       0.00000000
Si       0.01071882      -2.69584841       2.68499317       0.00000000
Si       2.71243163       0.02655270      -2.67956658       0.00000000
Si       0.00708615       2.72632700      -2.67212691       0.00000000
Si       0.00027693       2.69430086       2.71513114       0.00000000
Si      -2.75121813       0.01806561      -2.65788941       0.00000000
Si      -2.71567334      -2.71748153      -0.00148793       0.00000000
