10
Lattice="16.290000149 0.0 0.0 0.0 16.290000149 0.0 0.0 0.0 29.1751946751" Properties=species:S:1:pos:R:3:initial_magmoms:R:1 pbc="T T T"
Si       1.44213742      -0.29695041      -0.43348504       0.00000000
Si      -1.98475733       0.12772989       1.07831520       0.00000000
Si      -1.22246677       1.99073576      -0.21125758       0.00000000
Si       0.65288692       2.68894145       1.06839563       0.00000000
Si       1.08292663      -0.03028311      -2.79594643       0.00000000
Si      -0.59192974       1.64913446      -2.53917554       0.00000000
Si      -0.96133807      -1.21585303       2.69476686       0.00000000
Si       1.91930411      -2.41191371       0.50627715       0.00000000
Si       2.65836512       1.31815423       0.98434189       0.00000000
H        1.62403156       2.42530409      -1.41928570       0.00000000
