10
Lattice="16.290000149 0.0 0.0 0.0 16.290000149 0.0 0.0 0.0 29.1751946751" Properties=species:S:1:pos:R:3:initial_magmoms:R:1 pbc="T T T"
Si       1.35001747      -1.36446670      -1.32650858       0.00000000
Si      -1.17626181      -1.53648910       1.30871171       0.00000000
Si       1.51316182       1.33993396       1.19956730       0.00000000
Si      -1.02530075       1.53055954      -1.49140678       0.00000000
H        2.71130762      -0.80107705      -1.05695895       0.00000000
Si      -1.40897098      -3.39757275      -0.11824706       0.00000000
Si       2.35700012       2.78875843      -0.52103980       0.00000000
Si       0.09708840       2.58340082       2.63510358       0.00000000
Si      -2.63246402      -0.31859982       2.64522738       0.00000000
Si       0.90101620      -3.57547584      -0.71435464       0.00000000
