10
Lattice="16.290000149 0.0 0.0 0.0 16.290000149 0.0 0.0 0.0 29.1751946751" Properties=species:S:1:pos:R:3:initial_magmoms:R:1 pbc="T T T"
Si       1.35431803       1.35624025      -1.33333557       0.00000000
Si       1.39440772      -1.45117837       1.19370309       0.00000000
Si      -1.37837836      -1.36502056      -1.33520278       0.00000000
Si      -1.30474756       1.34529337       1.43078072       0.00000000
Si      -0.01931994      -2.77873194       2.43283196       0.00000000
Si       2.66232359       2.66925010       0.11238285       0.00000000
Si      -0.02052540       2.70335973      -2.66918021       0.00000000
Si       2.70743060      -0.02827944      -2.66996794       0.00000000
Si      -2.64678293      -0.03507237       2.74392706       0.00000000
Si      -2.70526403       2.68775717       0.07226696       0.00000000
