10
Lattice="16.290000149 0.0 0.0 0.0 16.290000149 0.0 0.0 0.0 29.1751946751" Properties=species:S:1:pos:R:3:initial_magmoms:R:1 pbc="T T T"
Si       1.37935576       1.34431597      -1.33374402       0.00000000
Si       1.37018449      -1.34791606       1.34095030       0.00000000
Si      -1.35014779       1.37684710       1.34806905       0.00000000
Si      -1.38062638      -1.34125345      -1.35953490       0.00000000
Si      -0.05781321       2.69041081      -2.59236192       0.00000000
Si      -0.00374670      -2.69184107       2.68248410       0.00000000
Si      -2.72585459       0.02006928       2.68000421       0.00000000
Si       2.72619669      -2.70024671      -0.02363191       0.00000000
Si       2.72935695       0.01396053       2.69791778       0.00000000
Si      -0.04331511      -2.78246235      -2.64683201       0.00000000
