10
Lattice="16.290000149 0.0 0.0 0.0 16.290000149 0.0 0.0 0.0 29.1751946751" Properties=species:S:1:pos:R:3:initial_magmoms:R:1 pbc="T T T"
Si      -1.41346539       1.22626234      -1.38092031       0.00000000
Si      -1.30653620      -1.49345092       1.27460591       0.00000000
Si       1.50759064      -1.32856354      -1.25021544       0.00000000
Si       0.66666826       1.87970312       1.29196515       0.00000000
Si       0.05071077       2.60956028      -2.59764263       0.00000000
Si       0.24988860      -2.57715947       2.64721129       0.00000000
Si      -2.75643093       2.52814286       0.03906559       0.00000000
Si       0.07183890      -2.73857709      -2.56557909       0.00000000
Si      -2.70303230      -0.18090045      -2.70051437       0.00000000
Si      -0.98373682       3.53365941       1.19066887       0.00000000
