10
Lattice="16.290000149 0.0 0.0 0.0 16.290000149 0.0 0.0 0.0 29.1751946751" Properties=species:S:1:pos:R:3:initial_magmoms:R:1 pbc="T T T"
Si      -1.36456444      -1.35226549       1.35161967       0.00000000
Si       1.30585528       1.29134089       1.47718970       0.00000000
Si      -1.36948402       1.41397201      -1.30580294       0.00000000
Si       1.36519975      -1.34721559      -1.38849711       0.00000000
Si       2.66165570       2.63091647       0.16120754       0.00000000
Si       2.71187777      -2.70876638      -0.00872047       0.00000000
Si      -2.72914517       0.02055798       2.69951366       0.00000000
Si      -2.70886412      -2.72036486      -0.01120911       0.00000000
Si      -0.01441665      -2.67211388       2.76072322       0.00000000
Si      -2.78361894       0.11901474      -2.64782134       0.00000000
