10
Lattice="16.290000149 0.0 0.0 0.0 16.290000149 0.0 0.0 0.0 29.1751946751" Properties=species:S:1:pos:R:3:initial_magmoms:R:1 pbc="T T T"
Si      -0.98337844       1.85308526      -0.90276805       0.00000000
Si      -1.76230109      -1.48830328       0.32509919       0.00000000
Si       0.39504879       0.64436725       2.22428767       0.00000000
Si       1.74596222      -0.97098175      -1.27705662       0.00000000
H       -0.40001724      -1.23075838      -2.58083772       0.00000000
Si       2.48989394      -2.28760472       0.51794723       0.00000000
Si       1.91029574      -1.20296764       2.57932061       0.00000000
Si      -2.46853775       0.83922823      -2.37410229       0.00000000
Si      -1.07170282      -3.53719271      -0.44334626       0.00000000
Si      -3.58366971      -0.60716089      -0.82545378       0.00000000
