10
Lattice="16.290000149 0.0 0.0 0.0 16.290000149 0.0 0.0 0.0 29.1751946751" Properties=species:S:1:pos:R:3:initial_magmoms:R:1 pbc="T T T"
Si       1.46016817       1.17827200      -1.41747683       0.00000000
Si      -1.39906666      -1.32110272      -1.36163551       0.00000000
Si      -1.33271749       1.43786944       1.31449715       0.00000000
Si       1.38728899      -1.35967744       1.35852252       0.00000000
Si       0.13937724      -2.59841792      -2.55306294       0.00000000
Si       0.06493194       2.35387244      -2.87865811       0.00000000
H       -0.82165132       3.11111310      -1.89968445       0.00000000
Si      -2.67297725       0.02153538       2.67767019       0.00000000
Si       2.68005200       2.67742442      -0.02926856       0.00000000
Si      -2.61353504      -2.75128329       0.08734762       0.00000000
