10
Lattice="16.290000149 0.0 0.0 0.0 16.290000149 0.0 0.0 0.0 29.1751946751" Properties=species:S:1:pos:R:3:initial_magmoms:R:1 pbc="T T T"
Si       1.36199062       1.36293544      -1.33009713       0.00000000
Si      -1.35011521       1.36363591       1.35644233       0.00000000
Si       1.38328165      -1.33877737       1.35075316       0.00000000
Si      -1.33569856      -1.34905636      -1.39507028       0.00000000
Si       2.69930189      -0.07827345      -2.61739424       0.00000000
Si      -2.68925096      -2.69420312      -0.01814697       0.00000000
Si      -0.02306664       2.72021825      -2.67034722       0.00000000
Si       0.02419065      -2.70249473       2.69479603       0.00000000
Si      -2.71744895       0.01871721       2.69955159       0.00000000
Si       0.01676241       2.72425817       2.70944198       0.00000000
