10
Lattice="16.290000149 0.0 0.0 0.0 16.290000149 0.0 0.0 0.0 29.1751946751" Properties=species:S:1:pos:R:3:initial_magmoms:R:1 pbc="T T T"
Si      -0.97661809       1.46430811       1.50170562       0.00000000
Si       1.56812428      -1.27959580       1.12368262       0.00000000
Si       1.62140887       1.01652859      -1.39816285       0.00000000
Si      -1.89363107      -1.50180769      -0.31844725       0.00000000
H       -0.38286387      -2.35828703      -2.03342354       0.00000000
H        0.77230891      -0.73458127      -3.15719369       0.00000000
H       -2.49502529      -1.59591502      -1.71771876       0.00000000
Si       0.17977644      -2.71606430       2.30177698       0.00000000
Si      -2.67284693       2.39179556       0.19276051       0.00000000
H       -2.12809304       2.64782549      -1.18988114       0.00000000
