10
Lattice="16.290000149 0.0 0.0 0.0 16.290000149 0.0 0.0 0.0 29.1751946751" Properties=species:S:1:pos:R:3:initial_magmoms:R:1 pbc="T T T"
Si       1.29735190       1.28050804       1.51039108       0.00000000
Si      -1.33807690      -1.36483160       1.40631440       0.00000000
Si       1.48126600      -1.29789599      -1.34027927       0.00000000
Si      -1.34729704       1.40196954      -1.39746265       0.00000000
Si      -0.01982493      -2.54123025      -2.71165929       0.00000000
Si      -2.59928129       2.72320910       0.09891646       0.00000000
Si       2.69705387      -2.71352958       0.11081381       0.00000000
Si       2.28929888       3.06837791       0.36254264       0.00000000
Si       2.37944774       2.37729095      -1.86712493       0.00000000
Si       0.18164979       2.76421103      -2.67732009       0.00000000
