10
Lattice="16.290000149 0.0 0.0 0.0 16.290000149 0.0 0.0 0.0 29.1751946751" Properties=species:S:1:pos:R:3:initial_magmoms:R:1 pbc="T T T"
H       -1.18532557       0.50986071      -0.80120920       0.00000000
Si       1.33625242      -1.06332976      -1.61989433       0.00000000
H       -1.75166372       0.64697365       1.52656289       0.00000000
Si       1.29989314       1.67032775       1.17036293       0.00000000
Si      -0.68818735      -1.85782565       1.42506238       0.00000000
H       -0.55423468       2.17956944      -1.90525691       0.00000000
H        1.52777395      -1.08165601       2.54495223       0.00000000
Si      -3.06685317       1.10631907       0.92546635       0.00000000
H       -1.99444988       1.27065259      -2.44625255       0.00000000
Si       2.55627569       0.03028311       2.33445320       0.00000000
