10
Lattice="16.290000149 0.0 0.0 0.0 16.290000149 0.0 0.0 0.0 29.1751946751" Properties=species:S:1:pos:R:3:initial_magmoms:R:1 pbc="T T T"
Si       1.05976225      -1.46241847      -1.48192484       0.00000000
Si      -1.31321836      -1.36304947       1.38520907       0.00000000
Si      -1.44441802       1.35164647      -1.28688866       0.00000000
Si       1.81804547       0.75847870       1.37989918       0.00000000
Si       2.15976080      -1.19452942       2.74672788       0.00000000
Si       0.28994571      -2.66323583       2.58711039       0.00000000
Si       2.43455681      -0.14382441      -2.84090541       0.00000000
Si      -2.70212006       0.10305054       2.61053807       0.00000000
Si       2.28659474      -2.99620344      -0.24431308       0.00000000
Si      -0.14328684       2.59011002      -2.78742727       0.00000000
