10
Lattice="16.290000149 0.0 0.0 0.0 16.290000149 0.0 0.0 0.0 29.1751946751" Properties=species:S:1:pos:R:3:initial_magmoms:R:1 pbc="T T T"
Si      -0.09014886       0.69108697       2.22966757       0.00000000
Si       0.72640369      -2.18961548      -0.40833602       0.00000000
Si       1.93904759       1.02929995      -0.89579518       0.00000000
Si      -2.19779795       0.38692008      -0.81019516       0.00000000
H        2.43949268      -0.25642089       1.50389376       0.00000000
Si       2.61483824      -1.64377993       0.89316941       0.00000000
Si      -2.14856957       2.68006340      -0.14012846       0.00000000
Si       1.49271787      -1.83786225      -2.66066105       0.00000000
Si       1.01937934       2.06824358      -2.73654573       0.00000000
Si       0.25925535       0.01884753      -3.61743239       0.00000000
