10
Lattice="16.290000149 0.0 0.0 0.0 16.290000149 0.0 0.0 0.0 29.1751946751" Properties=species:S:1:pos:R:3:initial_magmoms:R:1 pbc="T T T"
H        1.10591182      -1.68818159      -0.78143016       0.00000000
Si       1.93401398       0.83948887       1.08288520       0.00000000
Si      -0.23537421       0.52421220      -2.30037832       0.00000000
Si      -1.74333953       1.54287478       0.46324783       0.00000000
Si      -0.83245159      -1.99449875       1.09714603       0.00000000
Si       0.71117254       2.05312483       2.67477718       0.00000000
Si      -2.17034930      -0.84113416       2.65537276       0.00000000
Si       1.99249508      -2.44542224      -1.76040382       0.00000000
Si      -2.13374567      -0.77973715      -2.92764501       0.00000000
Si      -0.71167753       3.39445485       1.42850039       0.00000000
