10
Lattice="16.290000149 0.0 0.0 0.0 16.290000149 0.0 0.0 0.0 29.1751946751" Properties=species:S:1:pos:R:3:initial_magmoms:R:1 pbc="T T T"
Si      -1.37437102      -1.32247108       1.36367777       0.00000000
Si      -1.37293750       1.35381304      -1.34427627       0.00000000
Si       1.29145492      -1.36635634      -1.41199190       0.00000000
Si       1.41074659       1.32460507       1.35393326       0.00000000
Si       0.04404816      -2.69431715       2.61920310       0.00000000
Si       0.04676859       2.69208542       2.69917231       0.00000000
Si      -0.01039302       2.70515000      -2.69409583       0.00000000
Si       2.67915116      -0.00534312      -2.72519658       0.00000000
Si       2.61027704      -2.80758153      -0.13516868       0.00000000
Si      -2.73217511      -2.70321149       0.01455842       0.00000000
