10
Lattice="16.290000149 0.0 0.0 0.0 16.290000149 0.0 0.0 0.0 29.1751946751" Properties=species:S:1:pos:R:3:initial_magmoms:R:1 pbc="T T T"
Si      -1.36342548      -1.39616704      -1.31527904       0.00000000
Si       1.29304971      -1.35439948       1.43069320       0.00000000
Si      -1.35150508       1.32616891       1.40583593       0.00000000
Si       1.37298474       1.36360333      -1.36057645       0.00000000
Si      -2.81344755      -0.00368154      -2.53003204       0.00000000
Si      -2.66239038      -2.68768712       0.15527039       0.00000000
Si       0.06815247      -2.70142448      -2.67190517       0.00000000
Si       2.69395715       2.70461243       0.03148004       0.00000000
Si       2.64818225      -2.74818656       0.13922403       0.00000000
Si      -2.67905505       2.74082510       0.09855381       0.00000000
