10
Lattice="16.290000149 0.0 0.0 0.0 16.290000149 0.0 0.0 0.0 29.1751946751" Properties=species:S:1:pos:R:3:initial_magmoms:R:1 pbc="T T T"
Si      -1.39334887       1.35207001       1.31300046       0.00000000
Si       1.33923349       1.34900749      -1.37216776       0.00000000
Si      -1.40071195      -1.36930483      -1.31460510       0.00000000
Si       1.35366643      -1.31040019       1.42552919       0.00000000
Si       2.58445739      -2.74176993       0.01056142       0.00000000
Si       2.68428251       2.67335192       0.03600219       0.00000000
Si      -0.05462037       2.64049499       2.74229325       0.00000000
Si      -2.89406514      -0.00992061       2.47417321       0.00000000
Si       2.66297519      -0.02186118      -2.74468561       0.00000000
Si       0.00114030      -2.32942115       3.05484711       0.00000000
