10
Lattice="16.290000149 0.0 0.0 0.0 16.290000149 0.0 0.0 0.0 29.1751946751" Properties=species:S:1:pos:R:3:initial_magmoms:R:1 pbc="T T T"
Si       1.33821863      -1.36031275       1.36286087       0.00000000
Si      -1.35271021      -1.35239581      -1.36014758       0.00000000
Si      -1.32807973       1.34734591       1.39597471       0.00000000
Si       1.35718019       1.35340579      -1.36303592       0.00000000
Si       2.68989768       0.02427210       2.68601430       0.00000000
Si      -2.67052235       2.70627401       0.02739551       0.00000000
Si       0.03648634      -2.71050941      -2.68473059       0.00000000
Si      -2.69033099      -2.71060715       0.02024759       0.00000000
Si      -2.69784068       0.02984328      -2.71300135       0.00000000
Si       2.69817300       2.71441901       0.00242154       0.00000000
