10
Lattice="16.290000149 0.0 0.0 0.0 16.290000149 0.0 0.0 0.0 29.1751946751" Properties=species:S:1:pos:R:3:initial_magmoms:R:1 pbc="T T T"
Si       1.80098984       1.33896471       0.60938229       0.00000000
Si      -0.76631419      -0.35175323       2.25232503       0.00000000
Si      -1.23346252       1.85670978      -0.95677133       0.00000000
Si       1.59233122      -1.54353453      -1.08499631       0.00000000
H        0.69685363      -2.51239858       0.98728859       0.00000000
H       -1.18166032      -2.95775089      -0.24798915       0.00000000
Si      -0.29133036      -2.88749212      -1.47684835       0.00000000
Si       0.44632971       2.86716220       1.76486588       0.00000000
Si      -1.49271787       1.83786225       2.66066105       0.00000000
Si      -1.18346851      -1.46889375      -3.06920130       0.00000000
