10
Lattice="16.290000149 0.0 0.0 0.0 16.290000149 0.0 0.0 0.0 29.1751946751" Properties=species:S:1:pos:R:3:initial_magmoms:R:1 pbc="T T T"
Si       1.37570680       1.35677782      -1.33193516       0.00000000
Si       1.36940257      -1.34284987       1.35267873       0.00000000
Si      -1.32014161       1.36764325       1.38377948       0.00000000
Si      -1.36687762      -1.36062226      -1.35299965       0.00000000
Si      -0.01829367      -2.70386309       2.66588341       0.00000000
Si      -0.00750969       2.71650576      -2.65327973       0.00000000
Si       2.72585459      -0.02006928      -2.68000421       0.00000000
Si      -2.68268609       0.01630629       2.73359904       0.00000000
Si      -2.70943427       2.71706614       0.05134834       0.00000000
Si      -0.01676241      -2.72425817      -2.70944198       0.00000000
