10
Lattice="16.290000149 0.0 0.0 0.0 16.290000149 0.0 0.0 0.0 29.1751946751" Properties=species:S:1:pos:R:3:initial_magmoms:R:1 pbc="T T T"
Si       1.36254448       1.35133696      -1.34981956       0.00000000
Si       1.37293750      -1.35381304       1.34427627       0.00000000
Si      -1.35156502       1.36006840       1.36148963       0.00000000
Si      -1.37002159      -1.36073629      -1.35200770       0.00000000
Si      -0.02674818       2.70075985      -2.68225070       0.00000000
Si      -0.00143352      -2.67628412       2.70795404       0.00000000
Si       2.66439242      -2.72016938      -0.06771563       0.00000000
Si       2.68268609      -0.01630629      -2.73359904       0.00000000
Si      -2.68721960       0.00742824       2.73141090       0.00000000
Si       2.72520299       2.69362157       0.02654943       0.00000000
