10
Lattice="16.290000149 0.0 0.0 0.0 16.290000149 0.0 0.0 0.0 29.1751946751" Properties=species:S:1:pos:R:3:initial_magmoms:R:1 pbc="T T T"
Si      -1.37161801      -1.37084261      -1.33000960       0.00000000
Si       1.34576578       1.35567988      -1.37596053       0.00000000
Si       1.40504509      -1.33935404       1.33365650       0.00000000
Si      -1.39619962       1.33697896       1.34760224       0.00000000
Si      -0.01570845       2.69696591       2.68163802       0.00000000
Si       0.06939051      -2.69199420       2.70357776       0.00000000
Si      -2.70324407      -0.00391286      -2.70238158       0.00000000
Si      -2.70010010       2.71794743      -0.02759973       0.00000000
Si      -0.00180819      -2.71005981      -2.70996713       0.00000000
Si       2.70244586       2.72262266      -0.03894888       0.00000000
