10
Lattice="16.290000149 0.0 0.0 0.0 16.290000149 0.0 0.0 0.0 29.1751946751" Properties=species:S:1:pos:R:3:initial_magmoms:R:1 pbc="T T T"
Si       2.06154839      -0.70335008       0.86740771       0.00000000
Si       0.73261018       0.60579415      -2.14895731       0.00000000
Si      -1.32075249      -1.96154896      -0.10295926       0.00000000
Si      -0.54159363       1.54461293       1.72282442       0.00000000
H        0.68732398       1.53630503       2.60954611       0.00000000
H        0.11958489       1.91784941      -2.56905094       0.00000000
Si      -0.11829798       3.48758640       0.10523493       0.00000000
Si       1.21771009      -2.15217455       2.58801482       0.00000000
Si       3.09456246      -1.37292610      -1.20875749       0.00000000
Si       2.97900120       1.38682799       1.68288358       0.00000000
