10
Lattice="16.290000149 0.0 0.0 0.0 16.290000149 0.0 0.0 0.0 29.1751946751" Properties=species:S:1:pos:R:3:initial_magmoms:R:1 pbc="T T T"
Si      -1.22891761       0.00830790      -0.88672169       0.00000000
Si       2.29167722      -0.14947704      -0.92666253       0.00000000
Si       2.13302891       0.28882170       1.42908856       0.00000000
Si       1.42113961       1.92306710      -1.72302865       0.00000000
Si      -0.88568731      -2.44501271       1.41400499       0.00000000
Si       0.60408208      -1.07341979       2.70894600       0.00000000
H        1.26745975       2.72038115      -0.44804346       0.00000000
Si      -0.68732398      -1.53630503      -2.60954611       0.00000000
Si      -2.84522609      -1.17946932       0.41390849       0.00000000
Si      -2.07992514       2.29426733      -0.58805522       0.00000000
