10
Lattice="10.86 0.0 0.0 0.0 10.86 0.0 0.0 0.0 10.86" Properties=species:S:1:pos:R:3:initial_magmoms:R:1 pbc="T T T"
Si      -1.29969222       1.39054698       1.29453372       0.00000000
Si       1.08504432       1.38972162      -1.57112706       0.00000000
Si       1.40509938      -1.38315132       1.31774154       0.00000000
Si      -2.66452272       0.00987174       2.65626912       0.00000000
Si       0.05047728      -2.70512826       2.65626912       0.00000000
Si      -2.66452272      -2.70512826      -0.05873088       0.00000000
Si       0.05047728       2.72487174       2.65626912       0.00000000
Si      -2.66452272       2.72487174      -0.05873088       0.00000000
Si       2.76547728       0.00987174       2.65626912       0.00000000
Si      -2.66452272       0.00987174      -2.77373088       0.00000000
