10
Lattice="10.86 0.0 0.0 0.0 10.86 0.0 0.0 0.0 10.86" Properties=species:S:1:pos:R:3:initial_magmoms:R:1 pbc="T T T"
Si      -1.33071924      -1.28225106       1.34899662       0.00000000
Si       1.29851934      -1.25793552      -1.46664300       0.00000000
Si      -1.33071924       1.43274894      -1.36600338       0.00000000
Si       1.38428076       1.43274894       1.34899662       0.00000000
Si       2.41884780      -2.61740118      -0.16339956       0.00000000
Si       0.03411126      -2.61657582       2.70226122       0.00000000
Si      -2.68821924      -2.63975106      -0.00850338       0.00000000
Si      -0.00853596      -2.58490806      -2.76820314       0.00000000
Si      -2.68821924       0.07524894       2.70649662       0.00000000
Si      -2.68821924       0.07524894      -2.72350338       0.00000000
