10
Lattice="10.86 0.0 0.0 0.0 10.86 0.0 0.0 0.0 10.86" Properties=species:S:1:pos:R:3:initial_magmoms:R:1 pbc="T T T"
Si       1.39695438      -1.35273246      -1.30940106       0.00000000
Si      -1.31804562      -1.35273246       1.40559894       0.00000000
Si       1.39695438       1.36226754       1.40559894       0.00000000
Si       0.19725018      -2.74758000      -2.55636798       0.00000000
Si       2.75445438       0.00476754      -2.66690106       0.00000000
Si      -2.67842352      -2.74575552       0.06707136       0.00000000
Si      -2.67554562       0.00476754       2.76309894       0.00000000
Si       0.05058588       2.78980368      -2.67057174       0.00000000
Si       2.75445438      -2.71023246       0.04809894       0.00000000
Si       0.03945438      -2.71023246       2.76309894       0.00000000
