10
Lattice="10.86 0.0 0.0 0.0 10.86 0.0 0.0 0.0 10.86" Properties=species:S:1:pos:R:3:initial_magmoms:R:1 pbc="T T T"
Si       1.35750000       1.35750000       1.35750000       0.00000000
Si      -1.35750000      -1.35750000       1.35750000       0.00000000
Si      -1.35750000       1.35750000      -1.35750000       0.00000000
Si       1.35750000      -1.35750000      -1.35750000       0.00000000
Si      -0.07307694      -2.63012910      -2.63729670       0.00000000
Si       0.05375700       2.63453826       2.70574728       0.00000000
Si       0.05106372      -2.66186202       2.69191164       0.00000000
Si      -0.00287790       2.67947694      -2.69602758       0.00000000
Si      -2.71500000       0.00000000       2.71500000       0.00000000
Si      -2.71500000       2.71500000       0.00000000       0.00000000
