10
Lattice="10.86 0.0 0.0 0.0 10.86 0.0 0.0 0.0 10.86" Properties=species:S:1:pos:R:3:initial_magmoms:R:1 pbc="T T T"
Si      -1.41656754      -1.23184980       1.25873916       0.00000000
Si       1.42452792      -1.27538754      -1.30352580       0.00000000
Si       1.29843246       1.48315020       1.25873916       0.00000000
Si      -1.41656754       1.48315020      -1.45626084       0.00000000
Si      -0.02654184      -2.47648182      -2.76685650       0.00000000
Si      -0.08059206      -2.67994392       2.58277950       0.00000000
Si       2.67041970       0.07507518      -2.64681006       0.00000000
Si       2.71089492       0.10210572       2.62359138       0.00000000
Si      -2.77406754      -2.58934980      -0.09876084       0.00000000
Si      -2.77406754       0.12565020       2.61623916       0.00000000
