10
Lattice="10.86 0.0 0.0 0.0 10.86 0.0 0.0 0.0 10.86" Properties=species:S:1:pos:R:3:initial_magmoms:R:1 pbc="T T T"
Si       1.22961264      -1.26845886      -1.39098138       0.00000000
Si      -1.48538736      -1.26845886       1.32401862       0.00000000
Si      -1.48538736       1.44654114      -1.39098138       0.00000000
Si       2.58711264      -2.62595886      -0.03348138       0.00000000
Si       2.59963422       0.21158538       2.61964920       0.00000000
Si       0.03069036       2.49479178       2.73054066       0.00000000
Si      -0.12788736      -2.62595886       2.68151862       0.00000000
Si       2.58711264       0.08904114      -2.74848138       0.00000000
Si      -0.12788736      -2.62595886      -2.74848138       0.00000000
Si      -2.84288736      -2.62595886      -0.03348138       0.00000000
