10
Lattice="16.28999089631971 0.0 0.0 0.0 16.28999089631971 0.0 0.0 0.0 34.51877397758722" Properties=species:S:1:pos:R:3:initial_magmoms:R:1 pbc="T T T"
Si       1.52537931      -1.10664649      -1.46432173       0.00000000
Si       1.59817932       1.44063873       1.14277917       0.00000000
Si      -1.32755518       1.59288507      -1.51855075       0.00000000
Si      -0.14977026      -1.89181472       2.16277499       0.00000000
Si       3.34309896      -1.82276141       0.01912341       0.00000000
Si      -2.44081934      -0.00830790      -2.92874701       0.00000000
Si      -3.01354316       2.04361308       1.46325165       0.00000000
Si       1.06088625       1.47227391       3.50721295       0.00000000
Si       0.47659653      -2.64857123      -2.91680351       0.00000000
Si       0.22454136       2.63090016      -2.99605866       0.00000000
