10
Lattice="16.28999089631971 0.0 0.0 0.0 16.28999089631971 0.0 0.0 0.0 34.51877397758722" Properties=species:S:1:pos:R:3:initial_magmoms:R:1 pbc="T T T"
Si       1.35746199      -1.35713550       1.35665761       0.00000000
Si      -1.35638685      -1.35858592      -1.35676117       0.00000000
Si      -1.35731538       1.35730561       1.35720991       0.00000000
Si       1.35682668       1.35649111      -1.35890133       0.00000000
Si      -2.71425609      -0.00070047       2.71345330       0.00000000
Si       0.00037467      -2.71441966       2.71393656       0.00000000
Si       0.00013032       2.71437664       2.71445435       0.00000000
Si      -2.71472850      -2.71471288      -0.00020711       0.00000000
Si      -0.00133578      -2.71670026      -2.71279744       0.00000000
Si       2.71482624       2.71468615      -0.00013808       0.00000000
