10
Lattice="16.28999089631971 0.0 0.0 0.0 16.28999089631971 0.0 0.0 0.0 34.51877397758722" Properties=species:S:1:pos:R:3:initial_magmoms:R:1 pbc="T T T"
Si       0.91303821       0.31227930      -2.32394324       0.00000000
Si      -0.61972047      -2.31906883      -0.75768751       0.00000000
Si      -2.36464011       0.94433130       0.36596825       0.00000000
Si       0.90109764       0.74621232       2.45521821       0.00000000
Si      -2.43744012      -1.60295392      -2.24113265       0.00000000
Si      -0.81752994      -0.53396991      -3.71025249       0.00000000
Si      -0.90574029       2.06505072       3.15805536       0.00000000
Si      -2.16244863       3.20313528      -0.41339707       0.00000000
Si      -0.77848281      -3.65626511       1.20408455       0.00000000
Si       2.85633747      -1.36140417      -2.38448920       0.00000000
