10
Lattice="16.28999089631971 0.0 0.0 0.0 16.28999089631971 0.0 0.0 0.0 34.51877397758722" Properties=species:S:1:pos:R:3:initial_magmoms:R:1 pbc="T T T"
Si       1.35558864       1.16260753       1.53381293       0.00000000
Si       1.74553866      -0.43448755      -1.54350784       0.00000000
Si      -1.61085294       1.10342433      -1.44809790       0.00000000
Si      -1.31979951      -1.50918772       1.43141984       0.00000000
Si      -2.56430664      -1.11019675      -1.70688529       0.00000000
Si       2.97906633       2.11094617       0.12185134       0.00000000
Si      -0.13220964       2.40553453       2.87840278       0.00000000
Si      -3.02275611       2.41654657       0.02992779       0.00000000
Si       2.58475059      -0.33921091       2.88505455       0.00000000
Si      -2.30166297      -3.16992064       0.06030433       0.00000000
