10
Lattice="16.28999089631971 0.0 0.0 0.0 16.28999089631971 0.0 0.0 0.0 34.51877397758722" Properties=species:S:1:pos:R:3:initial_magmoms:R:1 pbc="T T T"
Si      -1.64500737      -1.62917756       0.54142727       0.00000000
Si       1.39932729       0.48834162       1.86059748       0.00000000
Si       1.40875920      -0.36717660      -1.91299700       0.00000000
Si      -1.20167257       2.07461295      -0.20735439       0.00000000
Si       1.59821190       1.94678532      -2.48832173       0.00000000
Si      -0.16477824       1.41310863       3.38170262       0.00000000
Si      -1.15635217      -3.38990732      -0.95938082       0.00000000
Si      -1.57336476       2.75134842       2.04202825       0.00000000
Si      -1.36780614      -2.28612950       2.77096161       0.00000000
Si      -0.04618215       3.48436584      -1.68462067       0.00000000
