10
Lattice="16.28999089631971 0.0 0.0 0.0 16.28999089631971 0.0 0.0 0.0 34.51877397758722" Properties=species:S:1:pos:R:3:initial_magmoms:R:1 pbc="T T T"
Si      -1.35511623       1.35881406       1.36218062       0.00000000
Si       1.35889551      -1.35645201       1.36252581       0.00000000
Si      -1.35425286      -1.35102744      -1.39294722       0.00000000
Si       1.35967743       1.35861858      -1.39588822       0.00000000
Si      -2.71441899      -2.71218726       0.00075941       0.00000000
Si       2.71524978       2.71344159       0.00082845       0.00000000
Si      -2.71456560       2.71521720       0.00000000       0.00000000
Si       2.71687878      -2.71422351       0.00583368       0.00000000
Si       0.00065160      -2.71417464       2.71987380       0.00000000
Si      -2.71437012       0.00127062       2.71977024       0.00000000
