10
Lattice="16.28999089631971 0.0 0.0 0.0 16.28999089631971 0.0 0.0 0.0 34.51877397758722" Properties=species:S:1:pos:R:3:initial_magmoms:R:1 pbc="T T T"
Si      -1.35674523      -1.35782037      -1.35745155       0.00000000
Si       1.35860229       1.35710361      -1.35834903       0.00000000
Si       1.35920502      -1.35769005       1.35955719       0.00000000
Si      -1.35944937       1.35871632       1.36055824       0.00000000
Si      -2.71394658      -2.71423980      -0.00155335       0.00000000
Si      -2.71443528       2.71523349      -0.00148431       0.00000000
Si      -2.71438641       0.00011403      -2.71535183       0.00000000
Si       0.00063531       2.71487511      -2.71531732       0.00000000
Si       0.00063531      -2.71533123      -2.71524828       0.00000000
Si       2.71663443      -2.71456560      -0.00031067       0.00000000
