10
Lattice="16.28999089631971 0.0 0.0 0.0 16.28999089631971 0.0 0.0 0.0 34.51877397758722" Properties=species:S:1:pos:R:3:initial_magmoms:R:1 pbc="T T T"
Si      -1.35498591       1.35651717      -1.36204254       0.00000000
Si       1.35944937      -1.35871632      -1.36055824       0.00000000
Si      -1.35879777      -1.35904212       1.36853208       0.00000000
Si       1.35987291       1.37218815       1.36117957       0.00000000
Si       0.05634711      -2.70774009       2.69395018       0.00000000
Si       2.71410948       2.71454931      -0.00448744       0.00000000
Si      -2.71257822      -0.00120546      -2.71669807       0.00000000
Si      -2.71588509       2.71454931      -0.00179498       0.00000000
Si      -2.71375110      -2.71686249      -0.00138075       0.00000000
Si       0.00234576       2.71401174      -2.71780267       0.00000000
