10
Lattice="16.28999089631971 0.0 0.0 0.0 16.28999089631971 0.0 0.0 0.0 34.51877397758722" Properties=species:S:1:pos:R:3:initial_magmoms:R:1 pbc="T T T"
Si      -0.37559853      -1.58597811      -1.77409338       0.00000000
Si      -1.92199194       1.37767788       0.46634890       0.00000000
Si       2.49759909       0.52999515       0.43552361       0.00000000
Si      -1.56507804       0.67486212       2.79564255       0.00000000
Si       0.25329321      -0.81370179       3.19813168       0.00000000
Si      -1.44332658      -3.19596768      -0.23776545       0.00000000
Si       2.40373611      -0.09143577       2.71652547       0.00000000
Si      -0.40169511      -2.92749219       2.32684282       0.00000000
Si      -1.15520535       3.61447407      -0.13862747       0.00000000
Si       1.43829297      -3.59785827      -0.60411340       0.00000000
