10
Lattice="16.28999089631971 0.0 0.0 0.0 16.28999089631971 0.0 0.0 0.0 34.51877397758722" Properties=species:S:1:pos:R:3:initial_magmoms:R:1 pbc="T T T"
Si       2.03971977       1.01406879      -0.69168758       0.00000000
Si      -0.27217332      -1.93958514      -1.55534779       0.00000000
Si      -1.99721916       1.33737642      -0.95820718       0.00000000
Si       0.41638869      -0.96790293       2.38424757       0.00000000
Si       1.90202040      -2.78811495      -0.91064029       0.00000000
Si       1.34296389      -2.95464762       1.43159791       0.00000000
Si       1.18478799       2.97272952      -1.62904541       0.00000000
Si       2.62347192       2.50755228       1.22645272       0.00000000
Si      -2.27395368      -2.93355207      -0.96842475       0.00000000
Si      -3.83818464       0.03749958      -0.13762643       0.00000000
