10
Lattice="16.28999089631971 0.0 0.0 0.0 16.28999089631971 0.0 0.0 0.0 34.51877397758722" Properties=species:S:1:pos:R:3:initial_magmoms:R:1 pbc="T T T"
Si      -0.16576704       2.01494268       1.21661487       0.00000000
Si       0.22509522      -0.19437228      -2.34182397       0.00000000
Si      -1.84096548      -1.29987684       0.82058075       0.00000000
Si       1.99721916      -1.33737642       0.95820718       0.00000000
Si       1.97211627       1.33613838      -2.65722219       0.00000000
Si       3.18200715       1.63535310      -0.67083823       0.00000000
Si       1.72504584      -3.27696156      -0.59714060       0.00000000
Si      -0.90445338       0.92189997       3.52809682       0.00000000
Si       1.20254409      -2.32815051      -2.72163426       0.00000000
Si      -1.87608672       3.34120932       0.33762832       0.00000000
