10
Lattice="16.28999089631971 0.0 0.0 0.0 16.28999089631971 0.0 0.0 0.0 34.51877397758722" Properties=species:S:1:pos:R:3:initial_magmoms:R:1 pbc="T T T"
Si      -1.35698958       1.35664822       1.35700280       0.00000000
Si       1.35834165       1.35612697      -1.35655406       0.00000000
Si       1.35710361      -1.35734796       1.35765866       0.00000000
Si      -1.35785295      -1.35685926      -1.35755510       0.00000000
Si       2.71339272      -0.00198738      -2.71259033       0.00000000
Si       0.00047241       2.71401241       2.71366041       0.00000000
Si      -0.00022806      -2.71484253       2.71341878       0.00000000
Si      -2.71491746      -0.00089595       2.71417820       0.00000000
Si       2.71510317       0.00029322       2.71414368       0.00000000
Si       2.71472850       2.71471288       0.00020711       0.00000000
