10
Lattice="16.28999089631971 0.0 0.0 0.0 16.28999089631971 0.0 0.0 0.0 34.51877397758722" Properties=species:S:1:pos:R:3:initial_magmoms:R:1 pbc="T T T"
Si      -1.35423657      -1.34236116       1.36566702       0.00000000
Si      -1.35376416       1.35710361      -1.35683021       0.00000000
Si       1.36122498      -1.35764118      -1.35579464       0.00000000
Si       1.35345465       1.36475991       1.37250174       0.00000000
Si       0.04658940      -2.64611502       2.68859977       0.00000000
Si      -2.60625339       0.12877245       2.77002960       0.00000000
Si      -2.71091664       2.71393029      -0.00148431       0.00000000
Si      -2.71176372      -0.00053757      -2.71331523       0.00000000
Si       0.00332316       2.71438777      -2.71410916       0.00000000
Si      -2.71410948      -2.71454931       0.00448744       0.00000000
