10
Lattice="16.28999089631971 0.0 0.0 0.0 16.28999089631971 0.0 0.0 0.0 34.51877397758722" Properties=species:S:1:pos:R:3:initial_magmoms:R:1 pbc="T T T"
Si      -0.95283957       0.70897501      -2.04489331       0.00000000
Si      -1.58413312      -0.65708647       1.65452028       0.00000000
Si       0.85137567       2.07705808       0.84564140       0.00000000
Si       1.36496679      -2.04881515      -0.66748991       0.00000000
Si      -0.75695232      -1.17684403      -3.43185843       0.00000000
Si       2.89420683       1.45025146       1.83111843       0.00000000
Si       0.44607559       2.52239410      -2.82111742       0.00000000
Si      -0.43792081      -1.97968039       3.25370693       0.00000000
Si       1.39057467      -1.94925067      -2.99847498       0.00000000
Si       1.60008036       3.44411488      -0.96051994       0.00000000
