10
Lattice="16.28999089631971 0.0 0.0 0.0 16.28999089631971 0.0 0.0 0.0 34.51877397758722" Properties=species:S:1:pos:R:3:initial_magmoms:R:1 pbc="T T T"
Si       1.37285604      -1.32058143       1.31112387       0.00000000
Si      -1.36316349       1.40722794       1.29023310       0.00000000
Si       1.35474156       1.23114933      -1.50680198       0.00000000
Si      -0.95886198      -1.60254504      -1.47525180       0.00000000
Si      -1.90736352       0.23949558      -2.79190213       0.00000000
Si      -2.58233967      -2.55088368      -0.06329021       0.00000000
Si      -0.39530943       2.26756800      -2.81109458       0.00000000
Si       0.01272249      -2.68027026       2.65783662       0.00000000
Si      -2.71083519       0.04015485       2.65914834       0.00000000
Si       2.63042775      -2.75074732      -0.05952766       0.00000000
