10
Lattice="16.28999089631971 0.0 0.0 0.0 16.28999089631971 0.0 0.0 0.0 34.51877397758722" Properties=species:S:1:pos:R:3:initial_magmoms:R:1 pbc="T T T"
Si       1.35695700       1.35499825       1.35859067       0.00000000
Si      -1.35746199       1.35713550      -1.35665761       0.00000000
Si      -1.35708732      -1.35728416       1.35727895       0.00000000
Si       1.35772263      -1.35778915      -1.35683021       0.00000000
Si      -2.71423980      -0.00045748       2.71262485       0.00000000
Si       0.00100998      -2.71261216      -2.71455790       0.00000000
Si      -2.71384884      -0.00145042      -2.71341878       0.00000000
Si      -0.00332316      -2.71438777       2.71410916       0.00000000
Si       2.71515204      -0.00009910      -2.71393656       0.00000000
Si      -0.00063531       2.71362661      -2.71555895       0.00000000
