10
Lattice="16.28999089631971 0.0 0.0 0.0 16.28999089631971 0.0 0.0 0.0 34.51877397758722" Properties=species:S:1:pos:R:3:initial_magmoms:R:1 pbc="T T T"
Si      -1.35415512       1.35355239      -1.36100698       0.00000000
Si      -1.36573731      -1.36206066       1.34178001       0.00000000
Si       1.36013355      -1.36296149      -1.36021305       0.00000000
Si       1.36295172       1.36647036       1.38334064       0.00000000
Si       0.04893516      -2.56624254       2.69719495       0.00000000
Si       2.71699281       2.71077003       0.00044874       0.00000000
Si      -2.71379997       2.71427238       0.00134623       0.00000000
Si      -2.71106325      -2.71841723      -0.00617886       0.00000000
Si       0.00320913       2.71174743      -2.71800978       0.00000000
Si      -2.71160082      -0.00351864      -2.71825141       0.00000000
