10
Lattice="16.28999089631971 0.0 0.0 0.0 16.28999089631971 0.0 0.0 0.0 34.51877397758722" Properties=species:S:1:pos:R:3:initial_magmoms:R:1 pbc="T T T"
Si       1.44629136      -1.13974614       1.44699330       0.00000000
Si      -1.25579610      -1.52005248      -1.38727578       0.00000000
Si      -1.27614231       1.53386640       1.37723081       0.00000000
Si       0.99597060      -0.78024213      -2.15811496       0.00000000
Si       0.81857250       1.52699202      -3.01611408       0.00000000
Si      -2.29594518       0.37352970      -2.71973572       0.00000000
Si      -0.00045612      -2.44803025       2.82450513       0.00000000
Si       3.19705911      -2.01539880       0.08529594       0.00000000
Si      -2.63088387       0.30271707       2.88403279       0.00000000
Si       2.70945054       0.29172132       2.86150237       0.00000000
