10
Lattice="16.28999089631971 0.0 0.0 0.0 16.28999089631971 0.0 0.0 0.0 34.51877397758722" Properties=species:S:1:pos:R:3:initial_magmoms:R:1 pbc="T T T"
Si       1.35607734      -1.35438318      -1.35731347       0.00000000
Si      -1.35733167      -1.35622395       1.35641598       0.00000000
Si      -1.35581670       1.35891180      -1.35803836       0.00000000
Si       1.35788553       1.35920502       1.35603627       0.00000000
Si       0.01689273       2.68618842      -2.70666691       0.00000000
Si       0.00832419      -2.71344159      -2.70837559       0.00000000
Si       2.70356985       0.01990638      -2.72301156       0.00000000
Si       0.00034209      -2.71353933       2.71334974       0.00000000
Si       2.71446786      -2.71287144      -0.00093201       0.00000000
Si      -2.71466334       0.00166158       2.71400560       0.00000000
