10
Lattice="16.28999089631971 0.0 0.0 0.0 16.28999089631971 0.0 0.0 0.0 34.51877397758722" Properties=species:S:1:pos:R:3:initial_magmoms:R:1 pbc="T T T"
Si       0.92818791      -0.94302810       1.97747811       0.00000000
Si      -1.26517914       1.79292627       1.01823536       0.00000000
Si      -1.10327283      -1.60037847      -1.45942006       0.00000000
Si       1.52651961       1.24543566      -1.42745566       0.00000000
Si       3.01021281       0.42412644       2.18472894       0.00000000
Si      -2.40743394      -0.18852417      -3.06730545       0.00000000
Si      -3.27775977       0.98567532       2.01582849       0.00000000
Si       0.29786265       2.53594575      -3.07048118       0.00000000
Si       2.39295213       3.19976325      -0.26579471       0.00000000
Si      -2.76739407       2.89979919      -0.45475058       0.00000000
