10
Lattice="16.28999089631971 0.0 0.0 0.0 16.28999089631971 0.0 0.0 0.0 34.51877397758722" Properties=species:S:1:pos:R:3:initial_magmoms:R:1 pbc="T T T"
Si      -2.15611182       0.09997173      -0.87087464       0.00000000
Si      -0.60782877      -0.29367612       2.23733559       0.00000000
Si       0.91771344      -1.94909850      -1.02897071       0.00000000
Si       1.35187452       1.89693792      -0.58115840       0.00000000
Si      -0.82819989       0.41591628      -3.16948108       0.00000000
Si       0.30600765      -2.42952318       2.51068991       0.00000000
Si       0.85840155      -1.26838827      -3.31218177       0.00000000
Si       1.25382501       1.78307082      -2.96223024       0.00000000
Si       3.48293232       1.21966488       0.41274121       0.00000000
Si      -3.12355863       2.01196161       0.23441713       0.00000000
