10
Lattice="16.28999089631971 0.0 0.0 0.0 16.28999089631971 0.0 0.0 0.0 34.51877397758722" Properties=species:S:1:pos:R:3:initial_magmoms:R:1 pbc="T T T"
Si      -1.40082597       1.30375386      -1.32293275       0.00000000
Si       1.32134706      -1.44234918      -1.31530410       0.00000000
Si       1.27545813       1.20650256       1.63594917       0.00000000
Si      -1.74390966      -1.07849574       1.30042650       0.00000000
Si      -0.24169473      -2.18536866       2.77341245       0.00000000
Si       2.58957243       2.63588490       0.13258668       0.00000000
Si       2.55000402      -2.73285927       0.32772142       0.00000000
Si      -0.04658940       2.64611502      -2.68859977       0.00000000
Si       2.67533928      -0.07064973      -2.68466463       0.00000000
Si       3.41643654      -0.77853168       1.48938237       0.00000000
