10
Lattice="16.28999089631971 0.0 0.0 0.0 16.28999089631971 0.0 0.0 0.0 34.51877397758722" Properties=species:S:1:pos:R:3:initial_magmoms:R:1 pbc="T T T"
Si      -0.20929392       0.83670327       2.21165360       0.00000000
Si      -2.01982968       1.06546374      -0.67874303       0.00000000
Si       1.72564857       0.99548190      -1.30708863       0.00000000
Si       0.18642276      -2.39448339      -0.30176329       0.00000000
Si       0.92980062      -0.26958321      -3.36126749       0.00000000
Si      -3.47188770      -0.05763402       0.82941756       0.00000000
Si       1.93464927       0.35469846       3.04279711       0.00000000
Si      -2.22117408      -0.33041007       2.85791445       0.00000000
Si       0.08837325      -2.50835049      -2.68283513       0.00000000
Si      -1.69021782       3.41195679      -0.00396966       0.00000000
