10
Lattice="16.28999089631971 0.0 0.0 0.0 16.28999089631971 0.0 0.0 0.0 34.51877397758722" Properties=species:S:1:pos:R:3:initial_magmoms:R:1 pbc="T T T"
Si      -1.45205802      -1.12309776       1.50816060       0.00000000
Si       2.01982968      -1.06546374       0.67874303       0.00000000
Si       0.32961186       2.34649305       0.67477337       0.00000000
Si      -1.29617901      -0.12352707      -2.11593299       0.00000000
Si       1.81053576      -0.22876047       2.89039664       0.00000000
Si      -3.21432651       0.49415715       1.14764632       0.00000000
Si      -3.12046353       1.11558807      -1.13335554       0.00000000
Si       1.23846354       2.10339738       2.82919482       0.00000000
Si       3.74547825      -0.06998184      -0.62834559       0.00000000
Si      -0.20134440      -1.39587381       3.53665748       0.00000000
