10
Lattice="16.28999089631971 0.0 0.0 0.0 16.28999089631971 0.0 0.0 0.0 34.51877397758722" Properties=species:S:1:pos:R:3:initial_magmoms:R:1 pbc="T T T"
Si      -1.03558788      -1.87260066      -0.96535257       0.00000000
Si       0.46030653       1.87963794      -1.39065862       0.00000000
Si      -2.03331780       0.79117272       1.00784521       0.00000000
Si       1.79844858      -0.29468610       1.79204315       0.00000000
Si       2.95482681       1.80340074       1.20363580       0.00000000
Si       2.84260500       1.95269859      -1.25489621       0.00000000
Si      -2.61368163      -0.93897189      -2.54427670       0.00000000
Si      -0.81700866       3.66461469      -0.49772648       0.00000000
Si      -2.17101717      -3.01101102       0.78889250       0.00000000
Si      -1.44956565       2.28465621       2.92598551       0.00000000
