10
Lattice="16.28999089631971 0.0 0.0 0.0 16.28999089631971 0.0 0.0 0.0 34.51877397758722" Properties=species:S:1:pos:R:3:initial_magmoms:R:1 pbc="T T T"
Si       1.35642311       1.35733167       1.35779673       0.00000000
Si      -1.35799492      -1.35769005       1.35796933       0.00000000
Si      -1.36012891       1.35654975      -1.36017853       0.00000000
Si       1.35952147      -1.35904212      -1.35848711       0.00000000
Si       2.71425163       2.71490769       0.00096653       0.00000000
Si       2.71384438      -0.00004887       2.71538635       0.00000000
Si       2.71459372      -2.71484253       0.00055230       0.00000000
Si      -0.00114505       2.71432125       2.71555895       0.00000000
Si      -0.00120540      -2.71440270       2.71552443       0.00000000
Si      -2.71563610      -0.00026064       2.71493761       0.00000000
