10
Lattice="16.28999089631971 0.0 0.0 0.0 16.28999089631971 0.0 0.0 0.0 34.51877397758722" Properties=species:S:1:pos:R:3:initial_magmoms:R:1 pbc="T T T"
Si       1.17641493      -1.47434274       1.38786260       0.00000000
Si       1.36873467       1.33498179      -1.36559798       0.00000000
Si      -1.34390871      -1.38041460      -1.36463145       0.00000000
Si      -1.42967556       1.32612003       1.45261986       0.00000000
Si      -0.60281145      -2.08829655       2.80941555       0.00000000
Si       2.72481201       2.68442910       0.02875415       0.00000000
Si      -2.71238274       2.70111006       0.00393514       0.00000000
Si       0.00899208       2.69228088      -2.72598362       0.00000000
Si      -2.70461241      -0.02129103      -2.72436124       0.00000000
Si       2.72468169      -0.02202408      -2.72477547       0.00000000
