10
Lattice="16.28999089631971 0.0 0.0 0.0 16.28999089631971 0.0 0.0 0.0 34.51877397758722" Properties=species:S:1:pos:R:3:initial_magmoms:R:1 pbc="T T T"
Si      -1.94088834       0.14502987      -1.29386793       0.00000000
Si       2.20955931       0.80756439      -0.24190770       0.00000000
Si       0.06709851      -1.15761627       2.08093093       0.00000000
Si       0.06483420      -1.00743876      -2.19394546       0.00000000
Si       2.50906725       1.31442611       2.08517674       0.00000000
Si       3.25505151      -1.33415100       0.54836555       0.00000000
Si       2.25535050       2.11917329      -2.29760540       0.00000000
Si       1.45917675       0.30577959      -3.60717938       0.00000000
Si       1.94033448      -2.68325622       2.09404807       0.00000000
Si       0.91639395       0.55292725       3.80010491       0.00000000
