10
Lattice="16.28999089631971 0.0 0.0 0.0 16.28999089631971 0.0 0.0 0.0 34.51877397758722" Properties=species:S:1:pos:R:3:initial_magmoms:R:1 pbc="T T T"
Si       0.01708821       0.21045051       2.32711897       0.00000000
Si      -0.65225160       2.05327372      -0.96152099       0.00000000
Si      -1.84251303      -1.49988546      -0.08060138       0.00000000
Si       2.29063464      -0.72299907       0.04584096       0.00000000
Si      -0.71052093      -3.53683593       0.38640337       0.00000000
Si      -0.94076379       1.66389548      -3.24870171       0.00000000
Si       2.17751688       0.88489693       2.96637250       0.00000000
Si      -2.40590268      -1.86056235      -2.34441288       0.00000000
Si      -2.92452741       2.49063416      -0.36255089       0.00000000
Si      -1.20462921       2.00352569       3.09426463       0.00000000
