10
Lattice="16.28999089631971 0.0 0.0 0.0 16.28999089631971 0.0 0.0 0.0 34.51877397758722" Properties=species:S:1:pos:R:3:initial_magmoms:R:1 pbc="T T T"
Si       1.35402480       1.35223290       1.35710636       0.00000000
Si      -1.35731538       1.35366642      -1.36038564       0.00000000
Si       1.35646830      -1.36072814      -1.35972979       0.00000000
Si      -1.37596743      -1.36547015       1.36128313       0.00000000
Si       2.56407858      -0.05852997       2.81528374       0.00000000
Si       2.70978700       2.71539639      -0.00307217       0.00000000
Si      -2.71634121       2.71140534       0.00141527       0.00000000
Si       0.00035838       2.71207323      -2.71776815       0.00000000
Si      -2.71365336      -2.71688887      -0.00255439       0.00000000
Si       2.71478908      -0.00206883      -2.71718133       0.00000000
