10
Lattice="16.28999089631971 0.0 0.0 0.0 16.28999089631971 0.0 0.0 0.0 34.51877397758722" Properties=species:S:1:pos:R:3:initial_magmoms:R:1 pbc="T T T"
Si      -1.35689998       1.35650088      -1.35876326       0.00000000
Si       1.35925389      -1.35609363      -1.36073083       0.00000000
Si      -1.36222356      -1.34516304       1.37219107       0.00000000
Si       1.35495333       1.35782037       1.36991283       0.00000000
Si       2.71420722      -2.71195920       0.00293410       0.00000000
Si      -2.71354786       2.71440270       0.00245083       0.00000000
Si      -2.71380026      -0.00021177      -2.71652547       0.00000000
Si      -2.71886269      -2.71147050      -0.00245083       0.00000000
Si       2.71375110       2.71686249       0.00138075       0.00000000
Si       0.00117288       2.71565703      -2.71531732       0.00000000
