10
Lattice="16.28999089631971 0.0 0.0 0.0 16.28999089631971 0.0 0.0 0.0 34.51877397758722" Properties=species:S:1:pos:R:3:initial_magmoms:R:1 pbc="T T T"
Si       1.35731538      -1.35366642       1.36038564       0.00000000
Si      -1.35780408      -1.35648459      -1.35731347       0.00000000
Si       1.35767376       1.35840681      -1.35738251       0.00000000
Si      -1.35902583       1.35773892       1.36180091       0.00000000
Si       2.71322982       2.71353933      -0.00079393       0.00000000
Si      -0.00043983      -2.71381789      -2.71421271       0.00000000
Si       2.71378368      -2.71439455       0.00065586       0.00000000
Si       2.71134018      -0.00143352       2.71749200       0.00000000
Si       2.71531494       0.00097740      -2.71435079       0.00000000
Si      -2.71547784       0.00083079      -2.71424723       0.00000000
