10
Lattice="16.28999089631971 0.0 0.0 0.0 16.28999089631971 0.0 0.0 0.0 34.51877397758722" Properties=species:S:1:pos:R:3:initial_magmoms:R:1 pbc="T T T"
Si       0.82883750      -1.94390199      -0.94263921       0.00000000
Si       0.39726979       0.93493197      -2.16940260       0.00000000
Si      -2.37166110       0.50678190      -0.29651643       0.00000000
Si       1.21382396       0.34054245       2.15859822       0.00000000
Si      -2.28325527       2.91789738       0.19699875       0.00000000
Si       2.63279699       2.54003454      -0.77070110       0.00000000
Si      -0.45577791       1.39072617       3.48695042       0.00000000
Si       2.98971089       1.83721878       1.55859255       0.00000000
Si       0.11631485      -3.88806462       0.23621210       0.00000000
Si       3.11146235      -2.03361102      -1.47481544       0.00000000
