10
Lattice="16.28999089631971 0.0 0.0 0.0 16.28999089631971 0.0 0.0 0.0 34.51877397758722" Properties=species:S:1:pos:R:3:initial_magmoms:R:1 pbc="T T T"
Si      -1.72564857      -0.99548190       1.30708863       0.00000000
Si       2.37166110      -0.50678190       0.29651643       0.00000000
Si       0.08840583       2.41111548       0.49351519       0.00000000
Si      -0.79584795      -1.26506511      -2.05417887       0.00000000
Si       2.76893089       0.42815007      -1.87288617       0.00000000
Si      -3.74547825       0.06998184       0.62834559       0.00000000
Si      -1.53922581      -3.38996529       1.00532534       0.00000000
Si       1.12707252       2.74494645       2.66036340       0.00000000
Si      -1.93494249      -0.15877863       3.51874223       0.00000000
Si       3.20049860      -2.45068389      -0.64612277       0.00000000
