10
Lattice="16.28999089631971 0.0 0.0 0.0 16.28999089631971 0.0 0.0 0.0 34.51877397758722" Properties=species:S:1:pos:R:3:initial_magmoms:R:1 pbc="T T T"
Si      -1.75251078       0.05142753      -1.53891684       0.00000000
Si       0.30446010      -2.31951681      -0.02523324       0.00000000
Si       2.05182554       0.75297267      -0.85192382       0.00000000
Si      -0.17198982       1.50493536       1.86567174       0.00000000
Si       2.03982795      -0.19142379       2.46001632       0.00000000
Si      -2.55428829       1.43187471       1.72990932       0.00000000
Si       1.68333759      -2.50442460       1.83570943       0.00000000
Si       1.35138582      -2.63352285      -2.12784197       0.00000000
Si      -3.33557298       1.47582513      -0.50939383       0.00000000
Si       3.30554141       1.28037771       1.06569870       0.00000000
