10
Lattice="16.28999089631971 0.0 0.0 0.0 16.28999089631971 0.0 0.0 0.0 34.51877397758722" Properties=species:S:1:pos:R:3:initial_magmoms:R:1 pbc="T T T"
Si      -1.35607734      -1.34944731      -1.39435214       0.00000000
Si       1.36037790       1.36399350      -1.39200486       0.00000000
Si      -1.46583936       1.35562122       1.39921929       0.00000000
Si       1.30737024      -1.57030713       1.45085940       0.00000000
Si      -2.72481201      -2.68442910      -0.02875415       0.00000000
Si       2.70332943       2.71672632      -0.00945815       0.00000000
Si       2.73698783      -2.71094922      -0.02205751       0.00000000
Si      -2.73313620       2.71816310      -0.03230959       0.00000000
Si      -0.00013032      -2.70645318      -2.75352962       0.00000000
Si       2.71555670       0.00783549      -2.75411644       0.00000000
