10
Lattice="16.28999089631971 0.0 0.0 0.0 16.28999089631971 0.0 0.0 0.0 34.51877397758722" Properties=species:S:1:pos:R:3:initial_magmoms:R:1 pbc="T T T"
Si       1.40858653      -1.33823979       1.33967437       0.00000000
Si      -0.27345601       2.35059813       0.09599676       0.00000000
Si       0.37169219      -0.67673547      -2.24938264       0.00000000
Si      -2.19518731      -0.63814446       0.66866354       0.00000000
Si      -2.93493250      -1.35962856      -1.43373808       0.00000000
Si      -1.79173288      -0.43316739      -3.19298838       0.00000000
Si      -1.32038173       2.66460417       2.19860550       0.00000000
Si       2.97269205      -2.26300680      -0.18143078       0.00000000
Si      -3.11959594       1.29244860       1.63898682       0.00000000
Si       1.57336476      -2.75134842      -2.04202825       0.00000000
