10
Lattice="16.28999089631971 0.0 0.0 0.0 16.28999089631971 0.0 0.0 0.0 34.51877397758722" Properties=species:S:1:pos:R:3:initial_magmoms:R:1 pbc="T T T"
Si       1.10322396       1.33644789      -1.62435085       0.00000000
Si      -1.35316958       1.81737756       0.78685589       0.00000000
Si      -1.65449385      -1.51319439      -0.87726061       0.00000000
Si       2.07705645       0.86405418       0.96352308       0.00000000
Si       0.40856949       1.92624363       2.50644410       0.00000000
Si      -1.81326922      -2.36654604       1.30532817       0.00000000
Si       3.10668219       0.31905594      -1.22842030       0.00000000
Si      -2.60502254      -0.44743743       2.42428937       0.00000000
Si       1.54245123       3.29010759      -0.39762198       0.00000000
Si      -0.38299419      -2.84442948      -2.29750184       0.00000000
