10
Lattice="16.28999089631971 0.0 0.0 0.0 16.28999089631971 0.0 0.0 0.0 34.51877397758722" Properties=species:S:1:pos:R:3:initial_magmoms:R:1 pbc="T T T"
Si      -1.29679803       1.26513027       1.47515027       0.00000000
Si      -1.20671433      -1.68192621      -1.28988588       0.00000000
Si       1.44120888      -1.46280942       1.44904716       0.00000000
Si       0.86367951       1.90371456      -1.48643589       0.00000000
Si      -2.47170776       2.84459238       0.02432194       0.00000000
Si       0.08089614       2.60343522       2.84199438       0.00000000
Si      -2.63583929      -0.10733481       2.84385840       0.00000000
Si       2.83546998       2.68584633      -0.14686711       0.00000000
Si      -2.69531408      -2.88243405       0.04915476       0.00000000
Si       0.46177263      -2.74411566      -2.83280690       0.00000000
