10
Lattice="16.28999089631971 0.0 0.0 0.0 16.28999089631971 0.0 0.0 0.0 34.51877397758722" Properties=species:S:1:pos:R:3:initial_magmoms:R:1 pbc="T T T"
Si       1.35759231       1.35772263       1.35465552       0.00000000
Si      -1.35718995       1.35685926      -1.35900489       0.00000000
Si      -1.35807286      -1.35915615       1.35655406       0.00000000
Si       1.35764118      -1.35739683      -1.35921200       0.00000000
Si      -2.71445998       2.71443528      -0.00144979       0.00000000
Si       2.71257822       0.00120546       2.71669807       0.00000000
Si       2.71492398       2.71521720      -0.00110460       0.00000000
Si       2.71528236      -2.71533123      -0.00131171       0.00000000
Si      -0.00330687       2.71575477       2.71490309       0.00000000
Si      -2.71497314      -2.71586880      -0.00120816       0.00000000
