10
Lattice="16.28999089631971 0.0 0.0 0.0 16.28999089631971 0.0 0.0 0.0 34.51877397758722" Properties=species:S:1:pos:R:3:initial_magmoms:R:1 pbc="T T T"
Si      -1.35507225       1.35580041      -1.35903941       0.00000000
Si       1.35681039       1.35752715       1.35703732       0.00000000
Si      -1.35803703      -1.35748642       1.35720991       0.00000000
Si       1.35654975      -1.35967254      -1.36004045       0.00000000
Si       2.71446786      -0.00037467       2.71486857       0.00000000
Si      -2.71459372       2.71484253      -0.00055230       0.00000000
Si       2.71472850       2.71480995       0.00055230       0.00000000
Si      -0.00074934       2.71479366       2.71483405       0.00000000
Si      -2.71444410      -2.71525554       0.00006904       0.00000000
Si       0.00006516      -2.71574493       2.71445435       0.00000000
