10
Lattice="16.28999089631971 0.0 0.0 0.0 16.28999089631971 0.0 0.0 0.0 34.51877397758722" Properties=species:S:1:pos:R:3:initial_magmoms:R:1 pbc="T T T"
Si      -0.13888854       1.87149294       1.45337927       0.00000000
Si       1.81837125      -1.48856391       0.40248913       0.00000000
Si      -1.77588693      -1.49667633       0.60000566       0.00000000
Si      -0.35691390       0.70281576      -2.32929365       0.00000000
Si       1.56507804      -0.67486212      -2.79564255       0.00000000
Si      -0.49871835      -2.90307348       2.19598207       0.00000000
Si       1.67642019      -2.00182923       2.69515834       0.00000000
Si       2.10121452       2.80702764       1.40474229       0.00000000
Si       1.16338293      -3.60235431      -0.46879973       0.00000000
Si      -2.33423320       2.88308565       0.92455136       0.00000000
