10
Lattice="16.28999089631971 0.0 0.0 0.0 16.28999089631971 0.0 0.0 0.0 34.51877397758722" Properties=species:S:1:pos:R:3:initial_magmoms:R:1 pbc="T T T"
Si      -1.35792300       1.35506736      -1.35845259       0.00000000
Si       1.35785295       1.35685926       1.35755510       0.00000000
Si      -1.35715737      -1.35884664       1.35731347       0.00000000
Si       1.35747828      -1.35915615      -1.36266388       0.00000000
Si      -0.02021589      -2.69746110      -2.72950799       0.00000000
Si      -2.71364589       2.71399687       0.00017259       0.00000000
Si       0.00086337       2.71350748       2.71455790       0.00000000
Si       2.71619460       2.71298623       0.00100105       0.00000000
Si      -2.71442740      -0.00127062       2.71486857       0.00000000
Si       2.71495656      -0.00048870       2.71521376       0.00000000
