10
Lattice="16.28999089631971 0.0 0.0 0.0 16.28999089631971 0.0 0.0 0.0 34.51877397758722" Properties=species:S:1:pos:R:3:initial_magmoms:R:1 pbc="T T T"
Si       1.35379022      -1.35591444       1.35948815       0.00000000
Si      -1.35736289      -1.35723393      -1.35686473       0.00000000
Si       1.35792788       1.35754417      -1.35717539       0.00000000
Si      -1.35517880       1.35615801       1.36211158       0.00000000
Si       2.71468940      -2.71394658      -0.00075941       0.00000000
Si       2.71491746       0.00089595      -2.71417820       0.00000000
Si      -2.71464446       0.00040725      -2.71455790       0.00000000
Si      -0.00009285      -2.71480995      -2.71441983       0.00000000
Si      -2.71568702      -2.71428867       0.00058682       0.00000000
Si      -0.00017430       2.71580268      -2.71441983       0.00000000
