10
Lattice="16.28999089631971 0.0 0.0 0.0 16.28999089631971 0.0 0.0 0.0 34.51877397758722" Properties=species:S:1:pos:R:3:initial_magmoms:R:1 pbc="T T T"
Si      -1.42961759       1.14064209       1.47291691       0.00000000
Si       1.33235910       1.36287027      -1.37257078       0.00000000
Si      -1.37905477      -1.35413883      -1.36970572       0.00000000
Si       1.45362186      -1.27977498       1.50432901       0.00000000
Si      -0.33775034      -2.12431374       2.84248455       0.00000000
Si      -2.35870145      -0.73459755       2.58490532       0.00000000
Si       2.68944642      -2.71072116      -0.00224372       0.00000000
Si       2.69895978       2.72201013      -0.00234728       0.00000000
Si       2.69325828       0.00483813      -2.73281834       0.00000000
Si      -0.02240690      -2.71204065      -2.73091981       0.00000000
