10
Lattice="16.28999089631971 0.0 0.0 0.0 16.28999089631971 0.0 0.0 0.0 34.51877397758722" Properties=species:S:1:pos:R:3:initial_magmoms:R:1 pbc="T T T"
Si      -2.02466781      -1.10268639       0.69658925       0.00000000
Si       0.32781996       1.66739001      -1.82103894       0.00000000
Si       0.90165150       0.50806881       2.27309706       0.00000000
Si      -2.48913548      -1.28775708      -1.80381406       0.00000000
Si       0.13486491      -1.72872738       2.87807343       0.00000000
Si       1.37660274       3.20931475      -0.36855716       0.00000000
Si       1.63944189       0.29361096      -3.27907825       0.00000000
Si       3.09658239      -0.93675645      -1.88196461       0.00000000
Si      -0.29854683       2.42414652       3.25853957       0.00000000
Si       0.39410397      -3.70817415      -1.77240196       0.00000000
