10
Lattice="16.28999089631971 0.0 0.0 0.0 16.28999089631971 0.0 0.0 0.0 34.51877397758722" Properties=species:S:1:pos:R:3:initial_magmoms:R:1 pbc="T T T"
Si       2.13390855       0.64793475       0.80356299       0.00000000
Si      -0.76678659      -2.23679619       0.60497637       0.00000000
Si      -1.20019833       1.91607771       0.98544251       0.00000000
Si      -0.90165150      -0.50806881      -2.27309706       0.00000000
Si       2.29267089       1.98513102      -1.15820907       0.00000000
Si      -3.13262239       0.83061081       1.70919805       0.00000000
Si      -2.92631931      -1.61075520      -1.57650781       0.00000000
Si       1.15520535      -3.61447407       0.13862747       0.00000000
Si       0.47495124       2.70124594      -2.64165421       0.00000000
Si       1.89607455       1.74094881       2.91345519       0.00000000
