10
Lattice="10.86 0.0 0.0 0.0 10.86 0.0 0.0 0.0 10.86" Properties=species:S:1:pos:R:3:initial_magmoms:R:1 pbc="T T T"
Si      -0.18788886      -1.43154348       1.97742138       0.00000000
Si      -0.37951356       2.32363818      -0.88497054       0.00000000
Si       2.33548644      -0.39136182      -0.88497054       0.00000000
Si      -1.78867458      -1.85113044       0.40440468       0.00000000
Si      -1.73701356       0.96613818      -2.24247054       0.00000000
Si       0.97798644      -1.74886182      -2.24247054       0.00000000
Si      -3.09451356      -0.39136182      -0.88497054       0.00000000
Si      -0.37951356      -3.10636182      -0.88497054       0.00000000
Si      -1.58767770       0.56363400       2.94194142       0.00000000
Si      -0.37951356      -0.39136182      -3.59997054       0.00000000
