10
Lattice="10.86 0.0 0.0 0.0 10.86 0.0 0.0 0.0 10.86" Properties=species:S:1:pos:R:3:initial_magmoms:R:1 pbc="T T T"
Si       1.35750000       1.35750000       1.35750000       0.00000000
Si      -1.35750000       1.35750000      -1.35750000       0.00000000
Si      -1.35750000      -1.35750000       1.35750000       0.00000000
Si       1.35750000      -1.35750000      -1.35750000       0.00000000
Si       2.86433586       2.31249582      -0.24558804       0.00000000
Si       2.75103348      -0.03704346       2.46563268       0.00000000
Si       2.64907980      -2.56732572       0.24680436       0.00000000
Si      -2.50898580       0.11610426      -2.84383218       0.00000000
Si      -2.54079474      -0.16759152       2.83576320       0.00000000
Si      -2.30671830      -3.04239642       0.32202072       0.00000000
