10
Lattice="10.86 0.0 0.0 0.0 10.86 0.0 0.0 0.0 10.86" Properties=species:S:1:pos:R:3:initial_magmoms:R:1 pbc="T T T"
Si      -1.32292176       1.19132028      -1.42124820       0.00000000
Si      -1.32292176      -1.52367972       1.29375180       0.00000000
Si       1.39207824      -1.52367972      -1.42124820       0.00000000
Si      -1.13129706       2.86613862       1.44114372       0.00000000
Si      -2.73208278       2.44655166      -0.13187298       0.00000000
Si       0.03457824       2.54882028      -2.77874820       0.00000000
Si      -2.68042176      -0.16617972      -2.77874820       0.00000000
Si       2.74957824      -0.16617972      -2.77874820       0.00000000
Si       0.03457824      -2.88117972       2.65125180       0.00000000
Si      -2.68042176      -2.88117972      -0.06374820       0.00000000
