10
Lattice="10.86 0.0 0.0 0.0 10.86 0.0 0.0 0.0 10.86" Properties=species:S:1:pos:R:3:initial_magmoms:R:1 pbc="T T T"
Si      -1.23098100      -1.16956770       1.26182340       0.00000000
Si       1.48401900      -1.16956770      -1.45317660       0.00000000
Si       1.48401900       1.54543230       1.26182340       0.00000000
Si      -2.45901894       0.17137080       2.62093068       0.00000000
Si      -2.58848100      -2.52706770      -0.09567660       0.00000000
Si       0.12651900      -2.52706770       2.61932340       0.00000000
Si       0.12651900      -2.52706770      -2.81067660       0.00000000
Si       2.84151900      -2.52706770      -0.09567660       0.00000000
Si       2.84151900       0.18793230       2.61932340       0.00000000
Si      -2.51103834       0.16910106      -2.94943482       0.00000000
