10
Lattice="10.86 0.0 0.0 0.0 10.86 0.0 0.0 0.0 10.86" Properties=species:S:1:pos:R:3:initial_magmoms:R:1 pbc="T T T"
Si      -1.20384186       1.31938140      -1.32714630       0.00000000
Si       1.51115814       1.31938140       1.38785370       0.00000000
Si       1.51115814      -1.39561860      -1.32714630       0.00000000
Si      -2.56134186      -0.03811860      -2.68464630       0.00000000
Si      -2.48389920      -2.77194984      -0.10840452       0.00000000
Si       0.15365814       2.67688140      -2.68464630       0.00000000
Si       0.33684462       2.50434858       2.89976118       0.00000000
Si       0.15365814      -2.75311860      -2.68464630       0.00000000
Si      -2.69452890       2.80738602       0.16814538       0.00000000
Si       2.86865814       2.67688140       0.03035370       0.00000000
