10
Lattice="10.86 0.0 0.0 0.0 10.86 0.0 0.0 0.0 10.86" Properties=species:S:1:pos:R:3:initial_magmoms:R:1 pbc="T T T"
Si      -1.53308448      -1.09889082       1.04686056       0.00000000
Si       1.18191552       1.61610918       1.04686056       0.00000000
Si       1.18191552      -1.09889082      -1.66813944       0.00000000
Si      -0.17558448      -2.45639082       2.40436056       0.00000000
Si       2.53941552       0.25860918       2.40436056       0.00000000
Si       2.53941552      -2.45639082      -0.31063944       0.00000000
Si      -2.76112242      -2.47295232      -0.30903216       0.00000000
Si      -2.89058448       0.25860918       2.40436056       0.00000000
Si      -0.17558448       2.97360918       2.40436056       0.00000000
Si       2.53941552       2.97360918      -0.31063944       0.00000000
