10
Lattice="10.86 0.0 0.0 0.0 10.86 0.0 0.0 0.0 10.86" Properties=species:S:1:pos:R:3:initial_magmoms:R:1 pbc="T T T"
Si       1.14813006      -1.49231604      -1.22297718       0.00000000
Si       1.18585770       1.37592942       1.42150884       0.00000000
Si      -1.52914230       1.37592942      -1.29349116       0.00000000
Si      -1.52914230      -1.33907058       1.42150884       0.00000000
Si       2.25980310       0.23725842       2.95338786       0.00000000
Si       2.54335770       2.73342942       0.06400884       0.00000000
Si       2.46502452      -0.16175970      -2.88791292       0.00000000
Si      -0.17164230       2.73342942      -2.65099116       0.00000000
Si      -0.25389594      -2.72105988      -2.74618992       0.00000000
Si      -0.17164230       2.73342942       2.77900884       0.00000000
