10
Lattice="10.86 0.0 0.0 0.0 10.86 0.0 0.0 0.0 10.86" Properties=species:S:1:pos:R:3:initial_magmoms:R:1 pbc="T T T"
Si      -0.99391806      -1.41397200       1.48472490       0.00000000
Si       1.72108194      -1.41397200      -1.23027510       0.00000000
Si       1.72108194       1.30102800       1.48472490       0.00000000
Si       0.43996032       2.52634008      -2.59247748       0.00000000
Si       0.32512668      -2.52160512      -2.65622568       0.00000000
Si      -2.35141806      -0.05647200       2.84222490       0.00000000
Si       0.36358194       2.65852800       2.84222490       0.00000000
Si      -2.63497266       2.87735700       0.30160392       0.00000000
Si      -2.57946720      -2.97792060      -0.13924692       0.00000000
Si       0.36358194      -2.77147200       2.84222490       0.00000000
