10
Lattice="10.86 0.0 0.0 0.0 10.86 0.0 0.0 0.0 10.86" Properties=species:S:1:pos:R:3:initial_magmoms:R:1 pbc="T T T"
Si       1.28112162      -1.22531208      -1.35279762       0.00000000
Si       1.28112162       1.48968792       1.36220238       0.00000000
Si      -1.43387838       1.48968792      -1.35279762       0.00000000
Si      -0.18174210      -2.43185808      -2.49222882       0.00000000
Si      -0.43996032      -2.52634008       2.59247748       0.00000000
Si       2.63862162      -2.58281208       0.00470238       0.00000000
Si       2.63862162       0.13218792      -2.71029762       0.00000000
Si       2.63862162       0.13218792       2.71970238       0.00000000
Si       2.63862162       2.84718792       0.00470238       0.00000000
Si      -0.07637838       2.84718792      -2.71029762       0.00000000
