10
Lattice="10.86 0.0 0.0 0.0 10.86 0.0 0.0 0.0 10.86" Properties=species:S:1:pos:R:3:initial_magmoms:R:1 pbc="T T T"
Si       1.18270830      -1.20303822      -1.46803308       0.00000000
Si       1.18270830       1.51196178       1.24696692       0.00000000
Si      -1.53229170       1.51196178      -1.46803308       0.00000000
Si       2.54020830      -2.56053822      -0.11053308       0.00000000
Si       2.54020830       0.15446178       2.60446692       0.00000000
Si      -0.22070778      -2.77583772       2.52613374       0.00000000
Si       2.54020830       0.15446178      -2.82553308       0.00000000
Si      -0.17479170      -2.56053822      -2.82553308       0.00000000
Si       2.54020830       2.86946178      -0.11053308       0.00000000
Si      -2.79446262      -2.66293716      -0.01699590       0.00000000
