10
Lattice="10.86 0.0 0.0 0.0 10.86 0.0 0.0 0.0 10.86" Properties=species:S:1:pos:R:3:initial_magmoms:R:1 pbc="T T T"
Si      -1.13458764      -1.40088570       1.48065240       0.00000000
Si       1.58041236      -1.40088570      -1.23434760       0.00000000
Si       1.58041236       1.31411430       1.48065240       0.00000000
Si      -2.49106680       2.61376308       0.04940214       0.00000000
Si      -2.65112148      -2.50948536       0.26734062       0.00000000
Si      -2.49208764      -0.04338570       2.83815240       0.00000000
Si      -3.23823480      -1.08653214      -1.68472266       0.00000000
Si       0.22291236       2.67161430       2.83815240       0.00000000
Si       2.93791236      -0.04338570      -2.59184760       0.00000000
Si       0.22291236      -2.75838570       2.83815240       0.00000000
