10
Lattice="10.86 0.0 0.0 0.0 10.86 0.0 0.0 0.0 10.86" Properties=species:S:1:pos:R:3:initial_magmoms:R:1 pbc="T T T"
Si      -1.44350034       1.09703376      -1.18210014       0.00000000
Si       1.27149966       1.09703376       1.53289986       0.00000000
Si       1.27149966      -1.61796624      -1.18210014       0.00000000
Si      -0.08600034       2.45453376      -2.53960014       0.00000000
Si       2.62899966       2.45453376       0.17539986       0.00000000
Si       2.62899966      -0.26046624      -2.53960014       0.00000000
Si      -2.80100034       2.45453376       0.17539986       0.00000000
Si      -0.08600034       2.45453376       2.89039986       0.00000000
Si       2.62899966      -0.26046624       2.89039986       0.00000000
Si       0.08879136      -3.12992802      -2.42906706       0.00000000
