10
Lattice="10.86 0.0 0.0 0.0 10.86 0.0 0.0 0.0 10.86" Properties=species:S:1:pos:R:3:initial_magmoms:R:1 pbc="T T T"
Si      -1.26916476       1.39420680       1.27349790       0.00000000
Si       1.48063068      -1.29556542       1.24490352       0.00000000
Si       1.42857870       1.15822986      -1.47711204       0.00000000
Si      -2.58855702       0.01799502       2.60707332       0.00000000
Si      -2.58855702      -2.69700498      -0.10792668       0.00000000
Si       0.12644298      -2.69700498       2.60707332       0.00000000
Si      -2.58855702       2.73299502      -0.10792668       0.00000000
Si       0.12644298       2.73299502       2.60707332       0.00000000
Si      -2.58855702       0.01799502      -2.82292668       0.00000000
Si       2.84144298       0.01799502       2.60707332       0.00000000
