10
Lattice="10.86 0.0 0.0 0.0 10.86 0.0 0.0 0.0 10.86" Properties=species:S:1:pos:R:3:initial_magmoms:R:1 pbc="T T T"
Si      -1.32382314      -1.36844688       1.34569518       0.00000000
Si      -1.32382314       1.34655312      -1.36930482       0.00000000
Si       1.39117686       1.34655312       1.34569518       0.00000000
Si       2.73137688      -2.56715196      -0.10234464       0.00000000
Si      -2.68132314      -0.01094688       2.70319518       0.00000000
Si      -2.68132314       2.70405312      -0.01180482       0.00000000
Si       0.03367686       2.70405312       2.70319518       0.00000000
Si      -2.65717050       0.05797068      -2.75397654       0.00000000
Si      -2.71943088      -2.70723510       0.01211976       0.00000000
Si       0.03367686      -2.72594688       2.70319518       0.00000000
