10
Lattice="10.86 0.0 0.0 0.0 10.86 0.0 0.0 0.0 10.86" Properties=species:S:1:pos:R:3:initial_magmoms:R:1 pbc="T T T"
Si       1.23131766      -1.21262760      -1.39793178       0.00000000
Si      -1.48368234      -1.21262760       1.31706822       0.00000000
Si       1.23131766       1.50237240       1.31706822       0.00000000
Si       2.58881766      -2.57012760      -0.04043178       0.00000000
Si      -0.12618234      -2.57012760       2.67456822       0.00000000
Si       2.58881766       0.14487240       2.67456822       0.00000000
Si      -0.12618234      -2.57012760      -2.75543178       0.00000000
Si       2.58881766       0.14487240      -2.75543178       0.00000000
Si      -2.84118234      -2.57012760      -0.04043178       0.00000000
Si       2.58881766       2.85987240      -0.04043178       0.00000000
