10
Lattice="10.86 0.0 0.0 0.0 10.86 0.0 0.0 0.0 10.86" Properties=species:S:1:pos:R:3:initial_magmoms:R:1 pbc="T T T"
Si      -1.33638816      -1.30971600      -1.32387744       0.00000000
Si       1.33962444       1.35315600      -1.34156838       0.00000000
Si       1.35750000      -1.35750000       1.35750000       0.00000000
Si      -1.35750000       1.35750000       1.35750000       0.00000000
Si      -0.06803790      -2.43523554      -2.94168078       0.00000000
Si      -2.71500000       2.71500000       0.00000000       0.00000000
Si       2.71500000      -2.71500000       0.00000000       0.00000000
Si      -2.71500000       0.00000000       2.71500000       0.00000000
Si       2.71500000       2.71500000       0.00000000       0.00000000
Si       0.00000000      -2.71500000       2.71500000       0.00000000
