10
Lattice="16.28999089631971 0.0 0.0 0.0 16.28999089631971 0.0 0.0 0.0 34.54679606040008" Properties=species:S:1:pos:R:3:initial_magmoms:R:1 pbc="T T T"
Si       1.57135783      -0.90595206       1.48057287       0.00000000
Si      -1.45515216      -1.92109599      -0.01084770       0.00000000
Si      -1.44539445       1.81569969       0.74710943       0.00000000
Si       0.31792704       0.61025598      -2.34372505       0.00000000
Si      -1.35874794       2.34062865      -2.45842048       0.00000000
Si      -2.28071307      -1.83330918      -2.27383684       0.00000000
Si      -3.30339927       1.55795931      -0.89990999       0.00000000
Si       0.23140108       3.68054631       0.92291817       0.00000000
Si      -0.04411984      -3.85770725       0.09752566       0.00000000
Si       3.16289083       0.68567868       2.10296829       0.00000000
