10
Lattice="16.28999089631971 0.0 0.0 0.0 16.28999089631971 0.0 0.0 0.0 34.54679606040008" Properties=species:S:1:pos:R:3:initial_magmoms:R:1 pbc="T T T"
Si      -1.40287851       1.25297793      -1.35341295       0.00000000
Si       1.35280305       1.36028016       1.35441481       0.00000000
Si      -1.36226754      -1.35489794       1.35051102       0.00000000
Si       1.21440321      -1.45403563      -1.41799822       0.00000000
Si      -2.08533177      -0.61913403      -2.75967704       0.00000000
Si      -0.50438727      -2.64005204      -2.66024988       0.00000000
Si       2.69726562       2.71143792      -0.01008422       0.00000000
Si       2.70648576       0.00423540       2.71255376       0.00000000
Si      -0.00645084      -2.71197020       2.71110279       0.00000000
Si      -0.00764001       2.71673217       2.71151735       0.00000000
