10
Lattice="16.28999089631971 0.0 0.0 0.0 16.28999089631971 0.0 0.0 0.0 34.54679606040008" Properties=species:S:1:pos:R:3:initial_magmoms:R:1 pbc="T T T"
Si       1.79997984       1.04510776      -1.10607744       0.00000000
Si      -1.21440321       1.45403563       1.41799822       0.00000000
Si       1.48861278      -1.27323686       1.37893268       0.00000000
Si      -1.71879048      -1.18601642      -1.24225166       0.00000000
Si       0.74924226       1.64391187      -3.13787139       0.00000000
Si      -3.29973498       0.83490160      -1.34167882       0.00000000
Si      -2.61728172       2.70701356       0.06458527       0.00000000
Si      -2.57667075       0.09913768       2.76850924       0.00000000
Si       0.13835097      -2.61467599       2.77096206       0.00000000
Si       0.13839984       2.81431579       2.77241303       0.00000000
