10
Lattice="16.28999089631971 0.0 0.0 0.0 16.28999089631971 0.0 0.0 0.0 34.54679606040008" Properties=species:S:1:pos:R:3:initial_magmoms:R:1 pbc="T T T"
Si      -1.35778779      -1.35651336       1.35772439       0.00000000
Si       1.35685926       1.35834613       1.35751711       0.00000000
Si      -1.35581670       1.35707226      -1.36059178       0.00000000
Si       1.35920502      -1.35674142      -1.35813895       0.00000000
Si       0.00645084       2.71197020      -2.71110279       0.00000000
Si       2.71288773      -2.71529484       0.00086367       0.00000000
Si      -0.00048870      -2.71399164       2.71496513       0.00000000
Si       2.71293660       2.71620560       0.00145097       0.00000000
Si       2.71433754       0.00070428       2.71524150       0.00000000
Si      -0.00065160       2.71597754       2.71479239       0.00000000
