10
Lattice="16.28999089631971 0.0 0.0 0.0 16.28999089631971 0.0 0.0 0.0 34.54679606040008" Properties=species:S:1:pos:R:3:initial_magmoms:R:1 pbc="T T T"
Si      -1.72274895       0.72514935      -1.45203720       0.00000000
Si      -1.29617901      -0.96589926       1.75376908       0.00000000
Si       0.67667031      -1.94740760      -1.20761848       0.00000000
Si       1.56151053       1.17840231       1.48285296       0.00000000
Si       1.58200335       0.10735110      -2.55891716       0.00000000
Si      -1.62372204      -2.91265689      -1.14640152       0.00000000
Si       2.42748693       2.11633164      -1.46081209       0.00000000
Si      -2.83283100       0.68031927       2.21849284       0.00000000
Si      -3.41321112       1.33374375       0.08398331       0.00000000
Si       2.09276001      -0.50516919       3.03891061       0.00000000
