10
Lattice="16.28999089631971 0.0 0.0 0.0 16.28999089631971 0.0 0.0 0.0 34.54679606040008" Properties=species:S:1:pos:R:3:initial_magmoms:R:1 pbc="T T T"
Si       0.80874963       1.98971436      -1.09796689       0.00000000
Si      -2.31655203      -0.68420769      -0.03565231       0.00000000
Si       1.19886255      -2.03071370      -0.56560046       0.00000000
Si       0.20323404       1.71737814       1.85506034       0.00000000
Si       0.61507782      -2.37265709       1.64615575       0.00000000
Si      -1.75694166      -2.29268948       1.61281808       0.00000000
Si       1.22103324       3.56210661       0.67038095       0.00000000
Si      -1.94805594       2.69529942       1.96066996       0.00000000
Si      -0.69240645       2.60831082      -2.76481618       0.00000000
Si      -3.14322066      -0.23244853      -2.24049916       0.00000000
