10
Lattice="16.28999089631971 0.0 0.0 0.0 16.28999089631971 0.0 0.0 0.0 34.54679606040008" Properties=species:S:1:pos:R:3:initial_magmoms:R:1 pbc="T T T"
Si       1.05073758      -0.59880411       2.03179395       0.00000000
Si      -2.15128998       0.97792128       0.10560961       0.00000000
Si       1.01779920       1.84472847      -1.18467939       0.00000000
Si      -0.20323404      -1.71737814      -1.85506034       0.00000000
Si       0.60551559       0.27233622      -2.95302723       0.00000000
Si      -0.74924226      -1.64391187       3.13787139       0.00000000
Si      -0.48070161       3.63657960      -0.77281226       0.00000000
Si      -3.76409772      -0.79509861      -0.53920669       0.00000000
Si      -2.51978607      -2.40158583      -1.89071266       0.00000000
Si       2.10699747       1.22121243       3.13237499       0.00000000
