10
Lattice="16.28999089631971 0.0 0.0 0.0 16.28999089631971 0.0 0.0 0.0 34.54679606040008" Properties=species:S:1:pos:R:3:initial_magmoms:R:1 pbc="T T T"
Si      -1.35711990      -1.35536058       1.35699891       0.00000000
Si       1.36044306      -1.35645201      -1.35710255       0.00000000
Si       1.35812988       1.35974259       1.35699891       0.00000000
Si      -1.35679410       1.36054080      -1.36110998       0.00000000
Si       2.70490563      -0.00529425      -2.72160157       0.00000000
Si       2.71412577      -2.71249677       0.00103640       0.00000000
Si       0.00053757      -2.71272483       2.71437783       0.00000000
Si       0.00764001      -2.71673217      -2.71151735       0.00000000
Si      -2.71425609       0.00259011       2.71493058       0.00000000
Si       2.71498914       0.00244350       2.71427419       0.00000000
