10
Lattice="16.28999089631971 0.0 0.0 0.0 16.28999089631971 0.0 0.0 0.0 34.54679606040008" Properties=species:S:1:pos:R:3:initial_magmoms:R:1 pbc="T T T"
Si      -1.35591444      -1.35685926      -1.35765530       0.00000000
Si       1.35853713       1.35830907      -1.35775894       0.00000000
Si      -1.35769005       1.35935163       1.35903717       0.00000000
Si       1.36130643      -1.36047564       1.36055723       0.00000000
Si      -2.71357191       0.00050499      -2.71503422       0.00000000
Si      -2.71319724       2.71621089      -0.00044911       0.00000000
Si       0.00159642      -2.71449067      -2.71493058       0.00000000
Si      -2.71407690      -2.71627605      -0.00076003       0.00000000
Si       0.00167787       2.71560816      -2.71503422       0.00000000
Si       2.71647153       2.71518462       0.00082912       0.00000000
