10
Lattice="16.28999089631971 0.0 0.0 0.0 16.28999089631971 0.0 0.0 0.0 34.54679606040008" Properties=species:S:1:pos:R:3:initial_magmoms:R:1 pbc="T T T"
Si      -0.62449344      -1.81012851       1.34926042       0.00000000
Si       1.20640482      -1.48488237      -1.48008921       0.00000000
Si       1.59767433       1.23079095       1.38698554       0.00000000
Si      -1.76717178       1.13111244      -1.26776448       0.00000000
Si       2.68025886      -2.42792676       0.24238046       0.00000000
Si      -0.51386805       2.39617755      -2.85653798       0.00000000
Si       3.52574244      -0.41894622       1.34048553       0.00000000
Si       2.49566058      -0.22677309      -2.97095703       0.00000000
Si      -2.31495561      -1.20153411       2.88528093       0.00000000
Si       1.09825551      -2.53527786       2.80129762       0.00000000
