10
Lattice="16.28999089631971 0.0 0.0 0.0 16.28999089631971 0.0 0.0 0.0 34.54679606040008" Properties=species:S:1:pos:R:3:initial_magmoms:R:1 pbc="T T T"
Si       1.83752829       1.19593035       0.89939179       0.00000000
Si      -0.43284159       1.31238756      -1.94882040       0.00000000
Si       1.22300433      -2.04192611      -0.59779809       0.00000000
Si      -1.01263527       0.75377088       2.12528553       0.00000000
Si      -2.91116051      -0.19956879      -0.34802462       0.00000000
Si      -3.05436590      -0.26453331       1.99880964       0.00000000
Si       0.79767243       3.35479518       1.26821359       0.00000000
Si      -1.47637573       3.04118010       1.93790361       0.00000000
Si       1.56441015       1.89056853      -3.04163981       0.00000000
Si       0.49427118      -2.71147769      -2.79760111       0.00000000
