10
Lattice="16.28999089631971 0.0 0.0 0.0 16.28999089631971 0.0 0.0 0.0 34.54679606040008" Properties=species:S:1:pos:R:3:initial_magmoms:R:1 pbc="T T T"
Si       1.35281934      -1.35433431      -1.35675708       0.00000000
Si      -1.36290285       1.35853713      -1.35603160       0.00000000
Si       1.36518345       1.34389242       1.36850300       0.00000000
Si      -1.37321442      -1.34736219       1.36076451       0.00000000
Si      -0.07973955       2.58598863       2.74339716       0.00000000
Si       2.70547578      -2.71277370       0.00359287       0.00000000
Si       2.70990666       0.00234576      -2.71375599       0.00000000
Si      -0.00487071      -2.71319724      -2.71382508       0.00000000
Si       2.70866862       2.71966437      -0.00321285       0.00000000
Si      -0.00477297       2.71704168      -2.71403236       0.00000000
