10
Lattice="16.28999089631971 0.0 0.0 0.0 16.28999089631971 0.0 0.0 0.0 34.54679606040008" Properties=species:S:1:pos:R:3:initial_magmoms:R:1 pbc="T T T"
Si       0.30116952       0.82860714       2.24830674       0.00000000
Si       0.71128656      -2.32428978      -0.37372745       0.00000000
Si      -1.83992292      -0.68232294      -1.53899153       0.00000000
Si       1.21648833       1.67692518      -1.61236897       0.00000000
Si       0.38411820       0.06265134      -3.23859121       0.00000000
Si       3.19341015       1.39277871      -0.03095395       0.00000000
Si       2.57298921       1.73110572       2.24910132       0.00000000
Si      -1.51843977       2.31339177       2.65340270       0.00000000
Si       2.93583267      -2.43180378       0.67925948       0.00000000
Si      -0.85260231       3.38458959      -1.69206847       0.00000000
