10
Lattice="16.28999089631971 0.0 0.0 0.0 16.28999089631971 0.0 0.0 0.0 34.54679606040008" Properties=species:S:1:pos:R:3:initial_magmoms:R:1 pbc="T T T"
Si       1.15543341       1.61277516       1.21704976       0.00000000
Si      -1.51749495       0.99592173      -1.46858512       0.00000000
Si      -0.90749961      -1.23517296       1.81633336       0.00000000
Si       1.37347506      -1.07725770      -1.70913460       0.00000000
Si       0.92525571      -2.63303415       2.17924766       0.00000000
Si       0.00703728       2.07241380      -2.95226720       0.00000000
Si      -2.87287182      -0.77861313      -2.20843972       0.00000000
Si      -0.28105137       2.10044889       3.08126501       0.00000000
Si       3.31436340       0.62568261       1.71818586       0.00000000
Si       1.82664657       0.58762917      -3.35736316       0.00000000
