10
Lattice="16.28999089631971 0.0 0.0 0.0 16.28999089631971 0.0 0.0 0.0 34.54679606040008" Properties=species:S:1:pos:R:3:initial_magmoms:R:1 pbc="T T T"
Si       1.39950648      -0.94969071      -1.64211377       0.00000000
Si       0.21998016       0.05481585       2.40932945       0.00000000
Si      -0.56374803       2.29335507      -0.59033598       0.00000000
Si      -2.16872028      -1.06287363      -0.69276729       0.00000000
Si      -0.76367520      -1.25638254      -2.61457208       0.00000000
Si      -1.63326798       1.71747099       2.56260438       0.00000000
Si      -2.64515391       2.31138810       0.47950980       0.00000000
Si      -3.77079617       0.68874120      -0.83154185       0.00000000
Si      -0.18490779       2.56564242      -2.98443029       0.00000000
Si       2.93303079       0.57024774      -2.60382802       0.00000000
