10
Lattice="16.28999089631971 0.0 0.0 0.0 16.28999089631971 0.0 0.0 0.0 34.54679606040008" Properties=species:S:1:pos:R:3:initial_magmoms:R:1 pbc="T T T"
Si       1.35729909      -1.35747828       1.35724074       0.00000000
Si       1.35778779       1.35651336      -1.35772439       0.00000000
Si      -1.35822762       1.35765453       1.35734438       0.00000000
Si      -1.35899325      -1.35773892      -1.35800077       0.00000000
Si      -0.00102627       2.71307411       2.71396327       0.00000000
Si      -2.71625813       0.00579924      -2.71296141       0.00000000
Si       2.71464705       2.71485949      -0.00020728       0.00000000
Si      -2.71516833      -0.00001629       2.71461966       0.00000000
Si       2.71603170      -0.00115659       2.71379053       0.00000000
Si       2.71490769      -2.71505430      -0.00010364       0.00000000
