10
Lattice="16.28999089631971 0.0 0.0 0.0 16.28999089631971 0.0 0.0 0.0 34.54679606040008" Properties=species:S:1:pos:R:3:initial_magmoms:R:1 pbc="T T T"
Si       1.34227971       1.35149985       1.35406243       0.00000000
Si      -1.35470898       1.35369900      -1.35426971       0.00000000
Si       1.35830907      -1.35980775      -1.35281874       0.00000000
Si      -1.34348517      -1.37577195       1.37171585       0.00000000
Si      -0.13123224       2.49238629       2.79887934       0.00000000
Si       2.54650167      -0.03911229       2.77994769       0.00000000
Si       0.00138465       2.71207322      -2.71054313       0.00000000
Si      -2.71344159      -0.00262269      -2.71081951       0.00000000
Si       2.71608057      -0.00262269      -2.71109588       0.00000000
Si       0.00123804      -2.71731861      -2.71054313       0.00000000
