10
Lattice="16.28999089631971 0.0 0.0 0.0 16.28999089631971 0.0 0.0 0.0 34.54679606040008" Properties=species:S:1:pos:R:3:initial_magmoms:R:1 pbc="T T T"
Si       1.33042059      -1.94767638      -0.11476452       0.00000000
Si      -1.24924752      -0.15612336      -2.03411649       0.00000000
Si      -1.02931623      -0.56615895       2.10020455       0.00000000
Si       1.71497862       1.78505820       0.20607175       0.00000000
Si       2.81413008      -0.97650405      -1.61226533       0.00000000
Si      -1.71298798       2.13128586      -2.22149842       0.00000000
Si       1.60091604       0.28603611      -3.26001023       0.00000000
Si       0.91277757      -0.79294833       3.44158829       0.00000000
Si       0.56106018       2.44490094      -2.89118843       0.00000000
Si       2.15708922      -2.39943555       2.09008233       0.00000000
