10
Lattice="16.28999089631971 0.0 0.0 0.0 16.28999089631971 0.0 0.0 0.0 34.54679606040008" Properties=species:S:1:pos:R:3:initial_magmoms:R:1 pbc="T T T"
Si       1.38639303       1.28720322       1.38225263       0.00000000
Si      -0.44530344      -2.14265628       0.85527551       0.00000000
Si       1.43648478      -0.48767373      -1.86421525       0.00000000
Si      -2.19924774       1.24463745      -0.03599778       0.00000000
Si       1.61152083       1.71809001      -2.59346398       0.00000000
Si       0.03890052       3.19816669      -1.60545960       0.00000000
Si      -2.19450735      -1.52588430       2.39364520       0.00000000
Si      -0.62644824      -3.33562185      -1.26493164       0.00000000
Si       0.92281221       3.46371568       0.52721895       0.00000000
Si       0.77431257       0.76268151       3.54743974       0.00000000
