10
Lattice="16.28999089631971 0.0 0.0 0.0 16.28999089631971 0.0 0.0 0.0 34.54679606040008" Properties=species:S:1:pos:R:3:initial_magmoms:R:1 pbc="T T T"
Si       0.61208046       0.52452171      -2.16518711       0.00000000
Si       0.73902843      -2.24746614       0.32954207       0.00000000
Si      -2.37891015      -0.25207146      -0.05106019       0.00000000
Si       1.54067562       1.45406169       1.15984023       0.00000000
Si       2.86096383      -0.20724138      -1.82707742       0.00000000
Si      -2.75775039      -0.52435881       2.34303411       0.00000000
Si       0.95689089       1.11211830       3.37159645       0.00000000
Si      -0.77431257      -0.76268151      -3.54743974       0.00000000
Si      -1.41512859       1.19208591       3.33825877       0.00000000
Si      -1.97473896       2.80056770       1.68978838       0.00000000
