10
Lattice="16.28999089631971 0.0 0.0 0.0 16.28999089631971 0.0 0.0 0.0 34.54679606040008" Properties=species:S:1:pos:R:3:initial_magmoms:R:1 pbc="T T T"
Si       0.58378473       0.34194339      -2.21175621       0.00000000
Si      -2.37201948       0.07996761      -0.03333768       0.00000000
Si       0.60191550      -1.79447382       1.46354129       0.00000000
Si      -0.61507782       2.37265709      -1.64615575       0.00000000
Si       1.67322735      -0.33016572       3.17960049       0.00000000
Si      -0.95689089      -1.11211830      -3.37159645       0.00000000
Si      -2.93162985       1.68844940      -1.68180807       0.00000000
Si      -2.87987652       1.26010694       2.10452432       0.00000000
Si       1.76474457      -3.65102883       0.35134111       0.00000000
Si      -0.41184378       4.09003523       0.20890459       0.00000000
