10
Lattice="16.28999089631971 0.0 0.0 0.0 16.28999089631971 0.0 0.0 0.0 34.54679606040008" Properties=species:S:1:pos:R:3:initial_magmoms:R:1 pbc="T T T"
Si      -2.08140588       0.01803303       1.06984578       0.00000000
Si       1.34262180       1.71644472       0.99522466       0.00000000
Si       0.56374803      -2.29335507       0.59033598       0.00000000
Si       0.37884024       0.27228735      -2.39409430       0.00000000
Si      -1.06951995      -0.57588408       3.15294036       0.00000000
Si       0.78301143       3.32492651      -0.65324573       0.00000000
Si      -3.20704814      -1.60461387      -0.24120586       0.00000000
Si       2.75775039       0.52435881      -2.34303411       0.00000000
Si      -1.60497225      -3.35622870      -0.10243131       0.00000000
Si       0.78372819      -2.23853922       2.99966543       0.00000000
