10
Lattice="16.28999089631971 0.0 0.0 0.0 16.28999089631971 0.0 0.0 0.0 34.54679606040008" Properties=species:S:1:pos:R:3:initial_magmoms:R:1 pbc="T T T"
Si       1.94209380      -0.22678938       1.34138375       0.00000000
Si       1.02931623       0.56615895      -2.10020455       0.00000000
Si      -1.41167511      -2.01472277      -0.25036077       0.00000000
Si      -0.71282434       2.05928406       1.17593905       0.00000000
Si      -2.50136927       2.35330227      -0.40160673       0.00000000
Si       2.35973682      -1.38151743      -2.21496907       0.00000000
Si       3.18640545      -1.83327660      -0.01012222       0.00000000
Si       1.65721428      -0.24070104       3.67678301       0.00000000
Si      -1.35533614      -3.45814613       1.68488273       0.00000000
Si       2.74429485       2.35121715      -1.89413279       0.00000000
