10
Lattice="16.28999089631971 0.0 0.0 0.0 16.28999089631971 0.0 0.0 0.0 34.54679606040008" Properties=species:S:1:pos:R:3:initial_magmoms:R:1 pbc="T T T"
Si       1.35552348      -1.35375666      -1.36211184       0.00000000
Si      -1.35817875      -1.35707982       1.35713709       0.00000000
Si       1.35760860       1.35797515       1.35720619       0.00000000
Si      -1.35896067       1.35765750      -1.36335552       0.00000000
Si      -0.00050499      -2.71455810       2.71458511       0.00000000
Si       2.71417464      -2.71527486      -0.00069094       0.00000000
Si       2.71461447       0.00069913       2.71503422       0.00000000
Si       0.00043983       2.71531334       2.71499967       0.00000000
Si      -2.71520091       0.00013782       2.71513786       0.00000000
Si       2.71559187       2.71611155       0.00069094       0.00000000
