10
Lattice="16.28999089631971 0.0 0.0 0.0 16.28999089631971 0.0 0.0 0.0 34.54679606040008" Properties=species:S:1:pos:R:3:initial_magmoms:R:1 pbc="T T T"
Si       1.35656604       1.35669473      -1.35710255       0.00000000
Si      -1.35684297       1.35317609       1.36079906       0.00000000
Si       1.35708732      -1.35763375       1.35917536       0.00000000
Si      -1.35907470      -1.35848079      -1.35696436       0.00000000
Si       0.02150280       2.69107379       2.72135629       0.00000000
Si      -0.01817964      -2.71905417       2.70764120       0.00000000
Si       2.71278999      -2.71498167      -0.00031092       0.00000000
Si       2.71373481      -0.00064345      -2.71489603       0.00000000
Si      -0.00167787       2.71462913      -2.71496513       0.00000000
Si       2.71538010       2.71454768       0.00017273       0.00000000
