10
Lattice="16.28999089631971 0.0 0.0 0.0 16.28999089631971 0.0 0.0 0.0 34.54679606040008" Properties=species:S:1:pos:R:3:initial_magmoms:R:1 pbc="T T T"
Si       0.45857979       0.25507208      -2.31090557       0.00000000
Si       0.88822854      -1.53235210       1.57640573       0.00000000
Si      -1.99594854       1.04813444       0.98596611       0.00000000
Si       1.20500388       2.17242463      -0.16706840       0.00000000
Si      -0.80203815      -0.23513053       2.65637373       0.00000000
Si      -1.09061550       3.10289314      -0.36533257       0.00000000
Si       2.35429596      -1.21556047      -2.39457796       0.00000000
Si       1.79271450       2.39093869       2.16359795       0.00000000
Si      -1.54474812      -0.42349180      -3.46124543       0.00000000
Si      -2.52180603      -2.22433501      -1.91302990       0.00000000
