10
Lattice="16.28999089631971 0.0 0.0 0.0 16.28999089631971 0.0 0.0 0.0 34.54679606040008" Properties=species:S:1:pos:R:3:initial_magmoms:R:1 pbc="T T T"
Si      -2.13377823      -0.58150413       0.65839321       0.00000000
Si       1.10975625       0.14340087       2.03180185       0.00000000
Si       1.29140604      -1.40469322      -1.37468688       0.00000000
Si      -0.53124948       1.68357150      -1.55605766       0.00000000
Si       2.56148847      -2.55721137       0.30297557       0.00000000
Si       1.62678456       2.09965068      -2.48381238       0.00000000
Si      -2.82735756       1.26907245       1.92031928       0.00000000
Si       0.22134852      -1.69771285       3.22674165       0.00000000
Si      -3.38893902      -0.46073007      -1.28514153       0.00000000
Si      -2.09276001       0.50516919      -3.03891061       0.00000000
