10
Lattice="16.28999089631971 0.0 0.0 0.0 16.28999089631971 0.0 0.0 0.0 34.54679606040008" Properties=species:S:1:pos:R:3:initial_magmoms:R:1 pbc="T T T"
Si      -1.37337732       1.30034925       1.41341040       0.00000000
Si      -1.05625989      -1.82001654      -1.10058104       0.00000000
Si       1.35316143      -1.40107032       1.40910587       0.00000000
Si       0.98070687       1.68485841      -1.54671071       0.00000000
Si      -2.71876842       2.58680313      -0.03048066       0.00000000
Si      -0.96169644       3.29755212      -1.53831583       0.00000000
Si      -0.00360009       2.66603769       2.77362562       0.00000000
Si       2.78109396       2.68825725      -0.12594732       0.00000000
Si       2.71106325      -0.05102028       2.77556024       0.00000000
Si      -2.71783989      -0.05080851       2.77790942       0.00000000
