10
Lattice="16.28999089631971 0.0 0.0 0.0 16.28999089631971 0.0 0.0 0.0 34.54679606040008" Properties=species:S:1:pos:R:3:initial_magmoms:R:1 pbc="T T T"
Si      -1.24366005       1.45829709       1.31367720       0.00000000
Si      -1.37834577      -1.33789770      -1.36055723       0.00000000
Si       1.33693659       1.37883447      -1.36231912       0.00000000
Si       1.27685907      -1.49719761       1.48375117       0.00000000
Si      -2.53291581       0.20018781       2.80454502       0.00000000
Si       2.69171073      -2.68669341      -0.00369651       0.00000000
Si      -0.02150280      -2.69107379      -2.72135629       0.00000000
Si       2.69387730       0.02347389      -2.72118355       0.00000000
Si      -2.73989655      -2.68798032       0.02307727       0.00000000
Si       2.69252523       2.73738789       0.00801486       0.00000000
