10
Lattice="16.28999089631971 0.0 0.0 0.0 16.28999089631971 0.0 0.0 0.0 34.54679606040008" Properties=species:S:1:pos:R:3:initial_magmoms:R:1 pbc="T T T"
Si       1.47771477       1.22719086      -1.25201114       0.00000000
Si       1.50012981      -0.73816506       1.69790688       0.00000000
Si      -1.26192114      -1.56721203      -1.30787334       0.00000000
Si      -0.94462452       1.48551768       1.67610784       0.00000000
Si       1.27992159       1.37800368       2.72909477       0.00000000
Si      -0.23183928      -1.75938516       3.00356922       0.00000000
Si      -0.02559159       2.43167346      -2.61871770       0.00000000
Si      -2.15990739      -0.10964799       3.05006924       0.00000000
Si       2.67426414      -0.28812123      -2.61353568       0.00000000
Si      -2.76276771      -0.27592002      -2.60776636       0.00000000
