10
Lattice="16.28999089631971 0.0 0.0 0.0 16.28999089631971 0.0 0.0 0.0 34.54679606040008" Properties=species:S:1:pos:R:3:initial_magmoms:R:1 pbc="T T T"
Si      -2.15803404      -0.41607918       0.92775473       0.00000000
Si       0.74578878      -2.19908484      -0.58508487       0.00000000
Si      -1.29205764       0.52185015      -2.01591032       0.00000000
Si       1.75379769       1.47849669       0.98693342       0.00000000
Si       0.85362858       3.45797604       0.02228270       0.00000000
Si      -1.62678456      -2.09965068       2.48381238       0.00000000
Si       0.43991145       1.54307025      -3.32157266       0.00000000
Si      -0.33537852      -3.50434390       1.10912551       0.00000000
Si       0.15807816      -2.41759890      -2.91575122       0.00000000
Si      -2.13754122      -1.48713039      -3.11401539       0.00000000
