10
Lattice="16.28999089631971 0.0 0.0 0.0 16.28999089631971 0.0 0.0 0.0 34.54679606040008" Properties=species:S:1:pos:R:3:initial_magmoms:R:1 pbc="T T T"
Si       1.69150473      -0.83298915       1.38418725       0.00000000
Si      -1.42633611      -1.22442156      -1.40291163       0.00000000
Si      -1.35558864       0.98735319       1.70198341       0.00000000
Si       1.10511360       1.50783498      -1.49442614       0.00000000
Si      -0.90736929       2.54312964      -2.18639885       0.00000000
Si      -1.94950575       0.50375196      -2.95903838       0.00000000
Si       0.36207783       2.42864352       2.62293241       0.00000000
Si       2.01021858       0.80702289       3.08492697       0.00000000
Si      -0.19727190      -3.12771258      -2.18553518       0.00000000
Si       3.75807042      -0.73111149       0.25080988       0.00000000
