10
Lattice="16.28999089631971 0.0 0.0 0.0 16.28999089631971 0.0 0.0 0.0 34.54679606040008" Properties=species:S:1:pos:R:3:initial_magmoms:R:1 pbc="T T T"
Si       1.34024346       1.35456237      -1.36750114       0.00000000
Si       1.50330636      -1.20448260       1.36670656       0.00000000
Si      -1.37782449      -1.36125756      -1.36380463       0.00000000
Si      -1.24620129       1.44078534       1.42996178       0.00000000
Si       0.02559159      -2.43167346       2.61871770       0.00000000
Si       2.67708231       2.71881729       0.00241828       0.00000000
Si      -2.71811682       2.69540856       0.00110550       0.00000000
Si       2.69985573      -2.71979469       0.00518202       0.00000000
Si       2.69742852      -0.00456120      -2.72346364       0.00000000
Si      -0.01632258       2.71137276      -2.72342910       0.00000000
