10
Lattice="16.28999089631971 0.0 0.0 0.0 16.28999089631971 0.0 0.0 0.0 34.54679606040008" Properties=species:S:1:pos:R:3:initial_magmoms:R:1 pbc="T T T"
Si       1.45078740      -1.24682031       1.35648071       0.00000000
Si      -1.33683885      -1.36425492      -1.36991942       0.00000000
Si       1.37626065       1.35159759      -1.36159363       0.00000000
Si      -1.50521229       1.31325093       1.40691906       0.00000000
Si      -2.67708231      -2.71881729      -0.00241828       0.00000000
Si       2.40821586       0.28559628       2.95430546       0.00000000
Si      -2.70943425       2.70386307      -0.01896620       0.00000000
Si      -2.69340489      -0.00744453      -2.72584737       0.00000000
Si       0.02153538       2.70793557      -2.72691832       0.00000000
Si       0.02034621      -2.72337849      -2.72588192       0.00000000
