10
Lattice="16.28999089631971 0.0 0.0 0.0 16.28999089631971 0.0 0.0 0.0 34.54679606040008" Properties=species:S:1:pos:R:3:initial_magmoms:R:1 pbc="T T T"
Si      -0.27875448       2.29400667      -0.62156630       0.00000000
Si       2.29671081       0.01492164      -0.68851803       0.00000000
Si      -0.15615594      -0.17858727       2.46681535       0.00000000
Si      -2.30495355      -1.14135885      -0.41984745       0.00000000
Si      -2.40068988       0.25378191       1.53505319       0.00000000
Si      -0.99005733      -1.55362617      -2.32299696       0.00000000
Si       2.46814677       0.09607842       1.69106661       0.00000000
Si       0.70387461       2.18763297      -2.76205244       0.00000000
Si      -0.31861611       0.26380026      -3.70500776       0.00000000
Si       0.65808342      -3.17524680      -1.86100240       0.00000000
