10
Lattice="16.28999089631971 0.0 0.0 0.0 16.28999089631971 0.0 0.0 0.0 34.54679606040008" Properties=species:S:1:pos:R:3:initial_magmoms:R:1 pbc="T T T"
Si       1.44401076      -1.49346720      -1.12228784       0.00000000
Si      -2.10349512      -0.80444907      -0.75723165       0.00000000
Si       0.41133879       2.22464385      -0.82352698       0.00000000
Si       0.14941188       2.36556864       1.63810634       0.00000000
Si      -1.61124390      -1.07085573      -3.02913387       0.00000000
Si      -0.88187544      -1.66459365       3.08972898       0.00000000
Si      -3.36671946       1.13707458      -0.79357490       0.00000000
Si      -2.50787808      -2.54677860       0.72285756       0.00000000
Si      -1.83319515       2.65701303      -1.75528914       0.00000000
Si       0.58528341      -1.94582421      -3.22715621       0.00000000
