10
Lattice="16.28999089631971 0.0 0.0 0.0 16.28999089631971 0.0 0.0 0.0 34.54679606040008" Properties=species:S:1:pos:R:3:initial_magmoms:R:1 pbc="T T T"
Si      -0.41133879      -2.22464385       0.82352698       0.00000000
Si      -2.24453394       0.43236918      -0.93176216       0.00000000
Si       0.15615594       0.17858727      -2.46681535       0.00000000
Si      -0.26192691       0.14092479       2.46163333       0.00000000
Si       2.62430271       0.27466569      -0.77574874       0.00000000
Si      -2.14879761      -0.96277158      -2.88666280       0.00000000
Si       1.03267197      -3.71811105      -0.29876086       0.00000000
Si      -3.77805825      -1.08756927       0.02995209       0.00000000
Si      -2.51483391      -3.02909292       0.06629534       0.00000000
Si      -0.12259854       2.47259394      -3.08838165       0.00000000
