10
Lattice="16.28999089631971 0.0 0.0 0.0 16.28999089631971 0.0 0.0 0.0 34.54679606040008" Properties=species:S:1:pos:R:3:initial_magmoms:R:1 pbc="T T T"
Si       1.36226754      -1.20044268       1.56923727       0.00000000
Si       1.87830216       1.05013485      -1.14199477       0.00000000
Si      -1.07131185      -1.46430810      -1.71605920       0.00000000
Si      -1.34570061       1.50305222       1.54610817       0.00000000
Si      -1.67322735       0.33016572      -3.17960049       0.00000000
Si      -2.74595643      -2.48686398      -0.05009979       0.00000000
Si       2.75975406      -2.52392373       0.19207684       0.00000000
Si       0.01710450      -2.55163302       2.93789573       0.00000000
Si       3.69444168      -0.68069394      -1.18835660       0.00000000
Si      -2.83431339       2.77628908       0.16717549       0.00000000
