10
Lattice="16.28999089631971 0.0 0.0 0.0 16.28999089631971 0.0 0.0 0.0 34.54679606040008" Properties=species:S:1:pos:R:3:initial_magmoms:R:1 pbc="T T T"
Si      -0.83237013      -1.61427384      -1.62622224       0.00000000
Si       1.58570118       0.97700904      -1.64684669       0.00000000
Si       1.97692182      -0.28414647       1.58141502       0.00000000
Si      -1.21648833      -1.67692518       1.61236897       0.00000000
Si      -2.06909064       1.70766441      -0.07969950       0.00000000
Si      -2.30428566      -0.35965062      -3.05507852       0.00000000
Si      -3.05641125      -2.35924812       0.07337744       0.00000000
Si       0.38147922       2.36762118      -3.07273195       0.00000000
Si       2.80701135       2.71643895      -0.56124756       0.00000000
Si      -1.09203273       3.50850762      -1.62791503       0.00000000
