10
Lattice="16.28999089631971 0.0 0.0 0.0 16.28999089631971 0.0 0.0 0.0 34.54679606040008" Properties=species:S:1:pos:R:3:initial_magmoms:R:1 pbc="T T T"
Si       0.62042094      -0.33832701      -2.28005527       0.00000000
Si      -0.01555695       2.34546678      -0.45173416       0.00000000
Si      -2.27181969      -0.90249858      -0.00079458       0.00000000
Si       1.63406619      -0.88915707       1.62135114       0.00000000
Si       2.45793294       1.87129746      -0.65466215       0.00000000
Si       1.82894346      -2.37604311      -2.00108973       0.00000000
Si       2.66471820      -2.67335190       0.33624415       0.00000000
Si      -2.57298921      -1.73110572      -2.24910132       0.00000000
Si       2.38093011       1.20169701      -2.88897744       0.00000000
Si       0.61986708      -2.02921272       3.45174506       0.00000000
