10
Lattice="16.28999089631971 0.0 0.0 0.0 16.28999089631971 0.0 0.0 0.0 34.54679606040008" Properties=species:S:1:pos:R:3:initial_magmoms:R:1 pbc="T T T"
Si       1.35751086       1.35775521       1.35665344       0.00000000
Si      -1.35757439       1.35681039      -1.35772439       0.00000000
Si       1.35713619      -1.35795069      -1.35793167       0.00000000
Si      -1.35942982      -1.35811359       1.35734438       0.00000000
Si       2.71301805       0.00089595       2.71613972       0.00000000
Si       2.71425609      -0.00259011      -2.71493058       0.00000000
Si       2.71485882       2.71446786      -0.00017273       0.00000000
Si      -2.71486459       2.71454931      -0.00069094       0.00000000
Si      -0.00187335       2.71705797       2.71251230       0.00000000
Si       2.71479366      -2.71531494      -0.00055275       0.00000000
