10
Lattice="16.28999089631971 0.0 0.0 0.0 16.28999089631971 0.0 0.0 0.0 34.54679606040008" Properties=species:S:1:pos:R:3:initial_magmoms:R:1 pbc="T T T"
Si       1.35473993       1.35796698      -1.35817350       0.00000000
Si      -1.35729020       1.35773892       1.35703345       0.00000000
Si       1.35757439      -1.35681039       1.35772439       0.00000000
Si      -1.35833286      -1.35778779      -1.35668799       0.00000000
Si      -0.00031277      -2.71256193      -2.71309960       0.00000000
Si       0.00095948       2.71498914       2.71289232       0.00000000
Si      -2.71100691      -0.00195480      -2.71786706       0.00000000
Si       0.00406761       2.71388142      -2.71527605       0.00000000
Si      -2.71468845       0.00058644       2.71461966       0.00000000
Si       2.71508525       0.00094482       2.71437783       0.00000000
