10
Lattice="16.28999089631971 0.0 0.0 0.0 16.28999089631971 0.0 0.0 0.0 34.54679606040008" Properties=species:S:1:pos:R:3:initial_magmoms:R:1 pbc="T T T"
Si      -1.60552611      -1.28713806      -1.20924015       0.00000000
Si       1.34936586      -1.29306762       1.55085491       0.00000000
Si       1.40531747       1.30921101      -1.52088697       0.00000000
Si      -1.36145304       1.40932935       1.54610817       0.00000000
Si       2.70804050       2.57437386       0.04122126       0.00000000
Si       2.73796523      -2.61861913       0.07017840       0.00000000
Si      -2.70400968      -2.68000962       0.24135442       0.00000000
Si      -2.65745286       2.79870345       0.03602542       0.00000000
Si      -0.01428633      -2.65617898       2.93839665       0.00000000
Si       2.70101788       0.06292827       2.94109131       0.00000000
