10
Lattice="16.28999089631971 0.0 0.0 0.0 16.28999089631971 0.0 0.0 0.0 34.54679606040008" Properties=species:S:1:pos:R:3:initial_magmoms:R:1 pbc="T T T"
Si       1.35754344       1.35330804      -1.36442647       0.00000000
Si      -1.35612621      -1.36201413      -1.35848442       0.00000000
Si       1.42208442      -1.20668028       1.44661335       0.00000000
Si      -1.41485166       1.18949580       1.48744768       0.00000000
Si      -0.30586104      -2.37461678       2.50146581       0.00000000
Si      -2.20157721      -0.90398423       2.58513819       0.00000000
Si       2.10040002       0.65124162       2.79680653       0.00000000
Si       0.21672216       2.06718471       2.98943957       0.00000000
Si      -2.69171073       2.68669341       0.00369651       0.00000000
Si       2.70914103       2.70506853      -0.01962259       0.00000000
