10
Lattice="16.28999089631971 0.0 0.0 0.0 16.28999089631971 0.0 0.0 0.0 34.54679606040008" Properties=species:S:1:pos:R:3:initial_magmoms:R:1 pbc="T T T"
Si       1.25330373       1.26506511      -1.58877349       0.00000000
Si       1.76717178      -1.13111244       1.26776448       0.00000000
Si      -1.36806678      -1.43272179      -1.46792873       0.00000000
Si      -1.91861991       1.44511848       1.36833026       0.00000000
Si      -0.14519277       2.15405928       2.74851008       0.00000000
Si       2.02891950       3.33681102       0.11552455       0.00000000
Si      -2.89338093       2.68625358      -0.32187268       0.00000000
Si       2.97357660      -2.61599481      -0.21232473       0.00000000
Si      -2.65013213      -0.07796394      -3.00578022       0.00000000
Si       0.04264722       2.64515391      -3.02066990       0.00000000
