10
Lattice="16.28999089631971 0.0 0.0 0.0 16.28999089631971 0.0 0.0 0.0 34.54679606040008" Properties=species:S:1:pos:R:3:initial_magmoms:R:1 pbc="T T T"
Si       1.88064792      -1.06779321      -0.88502032       0.00000000
Si      -1.31699763      -1.66645723      -1.02870052       0.00000000
Si       0.04035033       0.19116315       2.35982386       0.00000000
Si      -0.80110962       2.10668796      -0.72976693       0.00000000
Si      -0.35394912      -3.68467487      -0.24811523       0.00000000
Si      -3.09101121       2.10740472       0.05727862       0.00000000
Si      -1.60243101      -0.92875806      -3.31259049       0.00000000
Si      -3.37911615      -1.73271029       0.09666199       0.00000000
Si       0.32102703      -2.01365251       3.21444298       0.00000000
Si       0.26626005       3.78535617       0.49312124       0.00000000
