10
Lattice="16.28999089631971 0.0 0.0 0.0 16.28999089631971 0.0 0.0 0.0 34.54679606040008" Properties=species:S:1:pos:R:3:initial_magmoms:R:1 pbc="T T T"
Si      -0.75984120      -1.75207095      -1.34020916       0.00000000
Si      -1.67667498       1.73037267      -0.11469543       0.00000000
Si      -0.31792704      -0.61025598       2.34372505       0.00000000
Si       2.02468084       0.97534746      -1.17428080       0.00000000
Si      -1.98989910      -0.38973825      -2.74654092       0.00000000
Si      -2.59864011      -2.44356516       0.06988821       0.00000000
Si       0.74261549       2.33010531      -2.71213229       0.00000000
Si      -1.76332149       1.20544371       3.09083448       0.00000000
Si      -3.46174947       0.78328836      -1.36967759       0.00000000
Si      -1.77307920      -2.53135197       2.33287735       0.00000000
