10
Lattice="16.28999089631971 0.0 0.0 0.0 16.28999089631971 0.0 0.0 0.0 34.54679606040008" Properties=species:S:1:pos:R:3:initial_magmoms:R:1 pbc="T T T"
Si      -1.35689184       1.35702216       1.35689527       0.00000000
Si       1.35788553      -1.35811359       1.35748256       0.00000000
Si      -1.35703845      -1.35878148      -1.35862261       0.00000000
Si       1.35834165       1.35884664      -1.35775894       0.00000000
Si      -0.00552231       2.71386513      -2.71448147       0.00000000
Si      -0.00156384       2.71406061       2.71527605       0.00000000
Si       2.71503801       2.71446786       0.00017273       0.00000000
Si       0.00221544      -2.71508688       2.71472330       0.00000000
Si      -2.71484253      -2.71500543      -0.00041456       0.00000000
Si      -2.71484253       2.71507059      -0.00013819       0.00000000
