10
Lattice="16.28999089631971 0.0 0.0 0.0 16.28999089631971 0.0 0.0 0.0 34.54679606040008" Properties=species:S:1:pos:R:3:initial_magmoms:R:1 pbc="T T T"
Si      -1.35558864      -1.35855342      -1.37033398       0.00000000
Si       1.35834165       1.35835794      -1.36864118       0.00000000
Si      -1.19654937       1.51531209       1.36152454       0.00000000
Si       1.23647616      -1.54598616       1.34552936       0.00000000
Si      -2.67426414       0.28812123       2.61353568       0.00000000
Si       0.42112908       2.57160456       2.71531059       0.00000000
Si      -2.69985573       2.71979469      -0.00518202       0.00000000
Si       2.70832653      -2.71901277      -0.03133396       0.00000000
Si       2.71173114       2.71769328      -0.00238373       0.00000000
Si      -2.69252523      -2.73738789      -0.00801486       0.00000000
