10
Lattice="16.28999089631971 0.0 0.0 0.0 16.28999089631971 0.0 0.0 0.0 34.54679606040008" Properties=species:S:1:pos:R:3:initial_magmoms:R:1 pbc="T T T"
Si      -1.55494566       1.33364601       1.21297323       0.00000000
Si       0.79920369       1.19412216      -1.92121750       0.00000000
Si       1.78854493      -0.29401821       1.57754578       0.00000000
Si      -1.60059024      -1.70261451      -0.61434602       0.00000000
Si       0.19862397       2.42106867       2.32372244       0.00000000
Si      -1.37468052       1.89157851      -2.48104864       0.00000000
Si       2.50136927      -2.35330227       0.40160673       0.00000000
Si      -2.29563567       2.84765490      -0.49180846       0.00000000
Si       0.86843165       0.63498420       3.73171245       0.00000000
Si      -1.64094057      -1.89377766      -2.97416988       0.00000000
