10
Lattice="16.28999089631971 0.0 0.0 0.0 16.28999089631971 0.0 0.0 0.0 34.54679606040008" Properties=species:S:1:pos:R:3:initial_magmoms:R:1 pbc="T T T"
Si      -0.34010262       1.89638406      -1.45414455       0.00000000
Si       0.95653251       1.30756572       1.83319709       0.00000000
Si       1.80015903      -0.97852401      -1.38384178       0.00000000
Si      -1.59280362      -1.27511604       1.58106061       0.00000000
Si       0.04658940      -2.06594667      -2.49459099       0.00000000
Si       2.40728429       2.65373874       0.67424609       0.00000000
Si       2.46996671      -2.76460848       0.02414822       0.00000000
Si      -2.64523536       2.70153360       0.19035295       0.00000000
Si       1.51863525       3.38522490      -1.31865194       0.00000000
Si       2.42701193       0.03803715       3.11397190       0.00000000
