10
Lattice="16.28999089631971 0.0 0.0 0.0 16.28999089631971 0.0 0.0 0.0 34.54679606040008" Properties=species:S:1:pos:R:3:initial_magmoms:R:1 pbc="T T T"
Si       1.45075178       1.34617302      -1.15895100       0.00000000
Si       1.47047942      -1.26952857       1.28077481       0.00000000
Si      -1.26695475       1.47206214       1.29896026       0.00000000
Si      -0.95653251      -1.30756572      -1.83319709       0.00000000
Si      -1.29663513       0.58881834      -3.28734164       0.00000000
Si      -2.54933613      -2.58268176      -0.25213648       0.00000000
Si       0.09844047      -2.60784981       2.64816195       0.00000000
Si      -2.62646928       0.10868688       2.65158208       0.00000000
Si       0.56210274       2.07765918      -3.15184903       0.00000000
Si      -2.59260237       2.85371478      -0.09579141       0.00000000
