10
Lattice="16.28999089631971 0.0 0.0 0.0 16.28999089631971 0.0 0.0 0.0 34.54679606040008" Properties=species:S:1:pos:R:3:initial_magmoms:R:1 pbc="T T T"
Si       0.97384878      -2.08692819      -0.20862822       0.00000000
Si       1.77673401       1.49667633       0.52200238       0.00000000
Si      -1.94938032      -0.04846275       1.44333140       0.00000000
Si      -1.95764098       0.90793944      -1.38867834       0.00000000
Si       1.37643984       2.39977764      -1.61316354       0.00000000
Si      -0.39698730       1.69083684      -2.99334336       0.00000000
Si       1.55422890      -2.74035267       1.92588132       0.00000000
Si      -2.29629704       2.24251398       1.83194853       0.00000000
Si      -1.14524076      -1.07745318       3.38082045       0.00000000
Si      -0.61768422      -3.67855893      -0.83102364       0.00000000
