10
Lattice="16.28999089631971 0.0 0.0 0.0 16.28999089631971 0.0 0.0 0.0 34.54679606040008" Properties=species:S:1:pos:R:3:initial_magmoms:R:1 pbc="T T T"
Si      -1.64423115       0.09283671       1.66239276       0.00000000
Si      -0.06652836      -2.36666007      -0.39977575       0.00000000
Si      -1.05350688       1.09437849      -1.89085085       0.00000000
Si       2.14453682       0.86045409       0.76645565       0.00000000
Si       3.44224709       0.41673078      -1.14042492       0.00000000
Si      -0.62218026       1.28135511       3.38703887       0.00000000
Si       0.28582175       0.43486155      -3.68673250       0.00000000
Si      -3.38471991       0.74722230      -1.55073745       0.00000000
Si      -3.56029353       1.09410156       0.81661762       0.00000000
Si       1.09556181      -3.39739353       1.38674372       0.00000000
