10
Lattice="16.28999089631971 0.0 0.0 0.0 16.28999089631971 0.0 0.0 0.0 34.54679606040008" Properties=species:S:1:pos:R:3:initial_magmoms:R:1 pbc="T T T"
Si      -0.45258507      -1.94279427       1.16339855       0.00000000
Si      -1.91606238       1.00126485      -0.84577513       0.00000000
Si       1.02205089       1.18851840       1.72464612       0.00000000
Si       1.64423115      -0.09283671      -1.66239276       0.00000000
Si       2.65252743      -0.52670457       2.26810207       0.00000000
Si       1.57770279      -2.45949678      -2.06216850       0.00000000
Si      -1.37354022      -0.98671788       3.15263873       0.00000000
Si       1.72129914      -2.64025062       1.72322970       0.00000000
Si       1.48698378       3.24416979       0.62778473       0.00000000
Si      -0.70737696       1.25375985       3.37550024       0.00000000
