10
Lattice="16.28999089631971 0.0 0.0 0.0 16.28999089631971 0.0 0.0 0.0 34.54679606040008" Properties=species:S:1:pos:R:3:initial_magmoms:R:1 pbc="T T T"
Si       2.19107735      -0.21401802      -0.80272980       0.00000000
Si       0.13947498       1.31390253       1.96284641       0.00000000
Si      -0.46493289      -2.05565139       1.09686139       0.00000000
Si      -1.05564087       0.92543490      -2.07149614       0.00000000
Si      -1.48698378      -3.24416979      -0.62778473       0.00000000
Si       2.26949741       1.41131673      -2.47579752       0.00000000
Si       0.32117187       2.80565928      -2.39706533       0.00000000
Si       2.30178419      -2.47655241      -1.52372184       0.00000000
Si      -3.75593643      -0.26202465      -0.17567056       0.00000000
Si       1.16525043       3.38634891       1.34825856       0.00000000
