10
Lattice="16.28999089631971 0.0 0.0 0.0 16.28999089631971 0.0 0.0 0.0 34.54679606040008" Properties=species:S:1:pos:R:3:initial_magmoms:R:1 pbc="T T T"
Si       1.56065368       0.78289740      -1.60466503       0.00000000
Si      -1.67679553      -1.86484662      -0.17580874       0.00000000
Si      -1.30810396       1.87520706       1.10940188       0.00000000
Si       1.95764098      -0.90793944       1.38867834       0.00000000
Si       0.00826066      -0.95640219       2.83200974       0.00000000
Si      -0.33865607       1.33457454       3.22062686       0.00000000
Si      -2.13280150      -1.96053408       2.15506489       0.00000000
Si       3.33408082       1.49183820      -0.22448521       0.00000000
Si      -0.23140108      -3.68054631      -0.92291817       0.00000000
Si       0.58589266       2.02403250      -3.29486797       0.00000000
