10
Lattice="16.28999089631971 0.0 0.0 0.0 16.28999089631971 0.0 0.0 0.0 34.54679606040008" Properties=species:S:1:pos:R:3:initial_magmoms:R:1 pbc="T T T"
Si       1.31100684      -1.40869404      -1.27406582       0.00000000
Si      -1.37368683       1.32304122      -1.36501722       0.00000000
Si      -1.35040842      -1.36533006       1.34722216       0.00000000
Si       1.36248813       1.35646830       1.35002045       0.00000000
Si       0.00481880      -2.84263758      -2.46210178       0.00000000
Si       2.70180143       2.69781297      -0.02843548       0.00000000
Si      -2.69482212       2.70734358      -0.00263592       0.00000000
Si       0.00487071       2.70721881       2.70663934       0.00000000
Si      -2.70974376      -0.00752598       2.70467018       0.00000000
Si       2.71975301      -0.00706986       2.70498110       0.00000000
