10
Lattice="16.28999089631971 0.0 0.0 0.0 16.28999089631971 0.0 0.0 0.0 34.54679606040008" Properties=species:S:1:pos:R:3:initial_magmoms:R:1 pbc="T T T"
Si       1.34622189       1.34502107      -1.38681281       0.00000000
Si      -1.37083608      -1.36827855      -1.38190716       0.00000000
Si      -1.30305339       1.50074119       1.41735219       0.00000000
Si       1.28176236      -1.27803195       1.67959707       0.00000000
Si       2.70013985       2.69303252       0.00338559       0.00000000
Si       2.69062974      -2.71660185       0.00069094       0.00000000
Si      -0.33888087      -2.43427986       2.93399194       0.00000000
Si      -2.72513781       2.70742148      -0.02926115       0.00000000
Si      -0.01215234       2.70238950      -2.74788824       0.00000000
Si       2.70527120      -0.01267362      -2.74678274       0.00000000
