10
Lattice="16.28999089631971 0.0 0.0 0.0 16.28999089631971 0.0 0.0 0.0 34.54679606040008" Properties=species:S:1:pos:R:3:initial_magmoms:R:1 pbc="T T T"
Si      -1.05821469       1.97894178      -0.76652474       0.00000000
Si       0.67509018       0.29742282       2.26564925       0.00000000
Si      -1.45323090      -1.80457362      -0.64098161       0.00000000
Si       2.27074455      -0.30980322      -0.88204929       0.00000000
Si       1.48348143      -1.91743074       2.56067905       0.00000000
Si      -0.06309117      -3.61411569      -0.09718019       0.00000000
Si      -0.42850845       2.00929005      -3.05051834       0.00000000
Si       0.24646770       3.68031240       0.41203987       0.00000000
Si       3.26409639      -1.52837667       0.97529114       0.00000000
Si       2.13126957      -1.62370575      -2.84489570       0.00000000
