10
Lattice="16.28999089631971 0.0 0.0 0.0 16.28999089631971 0.0 0.0 0.0 34.54679606040008" Properties=species:S:1:pos:R:3:initial_magmoms:R:1 pbc="T T T"
Si      -1.88946081      -0.66051063       1.24731765       0.00000000
Si       1.81183896      -1.63505988       0.12023298       0.00000000
Si       0.74380140       2.07749628       1.23236578       0.00000000
Si      -0.51652332      -1.05215481      -2.35685284       0.00000000
Si      -0.54978750      -1.83443319       2.78239502       0.00000000
Si       2.18740491       0.90412758       2.75687183       0.00000000
Si       0.78042132      -3.28254903       1.43815080       0.00000000
Si      -1.88275585       0.69949260      -3.09287274       0.00000000
Si      -3.19218384      -1.92567348      -0.31479058       0.00000000
Si       3.53517435      -0.53763516       1.33758847       0.00000000
