10
Lattice="16.28999089631971 0.0 0.0 0.0 16.28999089631971 0.0 0.0 0.0 34.54679606040008" Properties=species:S:1:pos:R:3:initial_magmoms:R:1 pbc="T T T"
Si       1.35824968       1.35725022       1.35585886       0.00000000
Si       1.35729020      -1.35773892      -1.35703345       0.00000000
Si      -1.35739824      -1.35715248       1.35758620       0.00000000
Si      -1.35806613       1.35744570      -1.35682617       0.00000000
Si       2.71299124       0.00250866       2.71320324       0.00000000
Si       2.71203013       0.00022806      -2.71520695       0.00000000
Si      -0.00034588       2.71404432      -2.71465420       0.00000000
Si      -0.00104266      -2.71552671      -2.71372144       0.00000000
Si       2.71486459      -2.71454931       0.00069094       0.00000000
Si      -2.71476249       0.00182448      -2.71475785       0.00000000
