10
Lattice="16.28999089631971 0.0 0.0 0.0 16.28999089631971 0.0 0.0 0.0 34.54679606040008" Properties=species:S:1:pos:R:3:initial_magmoms:R:1 pbc="T T T"
Si      -1.60207589       1.75161483      -0.13877456       0.00000000
Si       1.40504508      -0.19350891      -1.92180479       0.00000000
Si      -1.12193140      -2.16210654       0.01133136       0.00000000
Si       2.16872028       1.06287363       0.69276729       0.00000000
Si      -1.56935905      -2.11458861      -2.31864406       0.00000000
Si      -0.47643363       3.37426173       1.17227709       0.00000000
Si       3.56822676       0.11318292      -0.94934649       0.00000000
Si       1.60497225       3.35622870       0.10243131       0.00000000
Si       0.47816037      -1.75347189      -3.45381787       0.00000000
Si      -3.38269085       1.36256076       1.44661335       0.00000000
