10
Lattice="16.28999089631971 0.0 0.0 0.0 16.28999089631971 0.0 0.0 0.0 34.54679606040008" Properties=species:S:1:pos:R:3:initial_magmoms:R:1 pbc="T T T"
Si       1.35633961       1.35767376      -1.35813895       0.00000000
Si       1.35772426      -1.35749457       1.35717164       0.00000000
Si      -1.35752545       1.35824391       1.35765530       0.00000000
Si      -1.35753508      -1.35817875      -1.35786258       0.00000000
Si       0.00106048      -2.71497285       2.71265049       0.00000000
Si       2.71450207      -0.00057015       2.71510331       0.00000000
Si      -2.71382182      -0.00058644      -2.71589789       0.00000000
Si       0.00016453       2.71539639       2.71448147       0.00000000
Si       2.71518625      -2.71484253      -0.00034547       0.00000000
Si      -2.71525534      -2.71477737      -0.00003455       0.00000000
