10
Lattice="16.28999089631971 0.0 0.0 0.0 16.28999089631971 0.0 0.0 0.0 34.54679606040008" Properties=species:S:1:pos:R:3:initial_magmoms:R:1 pbc="T T T"
Si      -1.35609124      -1.35751086      -1.35724074       0.00000000
Si       1.35942982       1.35811359      -1.35734438       0.00000000
Si      -1.35672309       1.35993807       1.35910626       0.00000000
Si       1.36114027      -1.35681039       1.36200820       0.00000000
Si      -2.71934901      -0.00454491       2.69755353       0.00000000
Si      -2.71293075       0.00019548      -2.71489603       0.00000000
Si      -2.71283301       2.71551042      -0.00044911       0.00000000
Si       0.00136510      -2.71480180      -2.71489603       0.00000000
Si       0.00185543       2.71492398      -2.71506877       0.00000000
Si      -2.71550457      -2.71464542      -0.00145097       0.00000000
