10
Lattice="16.28999089631971 0.0 0.0 0.0 16.28999089631971 0.0 0.0 0.0 34.529650657227435" Properties=species:S:1:pos:R:3:initial_magmoms:R:1 pbc="T T T"
Si      -0.19670175      -2.37442130      -0.22364867       0.00000000
Si      -2.10393495       1.01369412       0.76376177       0.00000000
Si       2.29656420       0.81897975       0.41767089       0.00000000
Si      -0.19386729       0.74769471      -2.41583383       0.00000000
Si       0.08799858      -0.26008614       2.68968864       0.00000000
Si       0.71706951       2.04102297       2.95373703       0.00000000
Si      -0.74984499       3.03860628      -2.00344598       0.00000000
Si       1.96809264       3.00947976       1.14006611       0.00000000
Si       1.95576111      -3.23256221       0.08073037       0.00000000
Si      -3.72913775      -0.61676058       0.36249248       0.00000000
