10
Lattice="16.28999089631971 0.0 0.0 0.0 16.28999089631971 0.0 0.0 0.0 34.529650657227435" Properties=species:S:1:pos:R:3:initial_magmoms:R:1 pbc="T T T"
Si      -0.32847156       2.19050001       0.72239523       0.00000000
Si       1.66731408      -0.52922952      -1.54858664       0.00000000
Si       1.28055690      -0.89645499       1.75224263       0.00000000
Si      -2.29656420      -0.81897975      -0.41767089       0.00000000
Si      -1.57949469       1.22204322       2.53606614       0.00000000
Si      -2.20856562      -1.07906589       2.27201775       0.00000000
Si       1.57138227      -2.84904574      -1.01589742       0.00000000
Si      -1.00532106       2.99729484      -1.43512214       0.00000000
Si      -0.29760201      -2.29443510       2.78947939       0.00000000
Si       1.92244806       0.96888033       3.06333420       0.00000000
