10
Lattice="16.28999089631971 0.0 0.0 0.0 16.28999089631971 0.0 0.0 0.0 34.529650657227435" Properties=species:S:1:pos:R:3:initial_magmoms:R:1 pbc="T T T"
Si       0.58686354      -0.37559690       2.20247500       0.00000000
Si       0.02990844      -2.15070584      -0.85329720       0.00000000
Si      -1.91096361       1.21536921      -0.51746163       0.00000000
Si       1.57815891       1.39798011      -1.03723676       0.00000000
Si       2.97302274      -0.01503404       1.92036759       0.00000000
Si       0.02544498       1.65915768       3.13222089       0.00000000
Si      -0.04320108      -1.75710686      -3.12641991       0.00000000
Si       3.12178302      -0.19915828      -1.79861598       0.00000000
Si       0.29760201       2.29443510      -2.78947939       0.00000000
Si      -1.28189268       3.51647832      -0.25341325       0.00000000
