10
Lattice="16.28999089631971 0.0 0.0 0.0 16.28999089631971 0.0 0.0 0.0 34.529650657227435" Properties=species:S:1:pos:R:3:initial_magmoms:R:1 pbc="T T T"
Si      -1.04001876      -1.43958802       1.54086032       0.00000000
Si       1.62013824       1.08761814       1.36436882       0.00000000
Si       0.85121766      -1.69744243      -1.58950430       0.00000000
Si      -1.26661266       1.18856727      -2.06939765       0.00000000
Si       0.58600017       0.02819799      -3.27140999       0.00000000
Si      -1.33675740      -2.74255508      -1.79136475       0.00000000
Si      -2.69956251      -2.43866513       0.16032126       0.00000000
Si      -2.42950689      -0.20437434       2.95565484       0.00000000
Si       2.88173358       2.53188954      -0.23148691       0.00000000
Si       0.28720899       2.48402952       2.93111116       0.00000000
