10
Lattice="16.28999089631971 0.0 0.0 0.0 16.28999089631971 0.0 0.0 0.0 34.529650657227435" Properties=species:S:1:pos:R:3:initial_magmoms:R:1 pbc="T T T"
Si       1.65954375       0.99907710       1.38053906       0.00000000
Si       1.36280511      -0.30388995      -1.95168601       0.00000000
Si      -1.02822480      -1.79951136       1.30206003       0.00000000
Si      -1.99034478       1.64122076       0.04692582       0.00000000
Si       0.31214898       1.64491859      -3.14796642       0.00000000
Si       0.27005562       2.23429079       2.79533359       0.00000000
Si       2.69956251       2.43866513      -0.16032126       0.00000000
Si      -2.44661139      -0.50522352       2.78512662       0.00000000
Si      -1.12301631       3.51300692       1.31668334       0.00000000
Si       1.12480821      -2.44013190      -2.86837968       0.00000000
