10
Lattice="16.28999089631971 0.0 0.0 0.0 16.28999089631971 0.0 0.0 0.0 34.529650657227435" Properties=species:S:1:pos:R:3:initial_magmoms:R:1 pbc="T T T"
Si       1.35439947      -1.35755973      -1.35819004       0.00000000
Si       1.35606105       1.35827649       1.35756850       0.00000000
Si      -1.35861858      -1.35679410       1.35705056       0.00000000
Si      -1.35949824       1.35961227      -1.36368026       0.00000000
Si       0.00174303      -2.70234810      -2.72352426       0.00000000
Si       2.71233387      -2.71375110       0.00037983       0.00000000
Si       2.71314837      -0.00016290       2.71372129       0.00000000
Si       2.71120986       2.71606428       0.00065606       0.00000000
Si      -0.00063531      -2.71383255       2.71413565       0.00000000
Si      -0.00149868       2.71568961       2.71455000       0.00000000
