10
Lattice="16.28999089631971 0.0 0.0 0.0 16.28999089631971 0.0 0.0 0.0 34.529650657227435" Properties=species:S:1:pos:R:3:initial_magmoms:R:1 pbc="T T T"
Si       1.34597754       1.34359920       1.35066257       0.00000000
Si       1.34943102      -1.34900748      -1.35515143       0.00000000
Si      -1.36418976       1.36290285      -1.35204376       0.00000000
Si      -1.35549090      -1.33209846       1.39496414       0.00000000
Si      -0.27820062       2.40311709       2.60930357       0.00000000
Si      -2.21840478       0.66078756       2.72511608       0.00000000
Si       2.67227676      -0.05320314       2.73699429       0.00000000
Si       2.70800073      -2.70606222       0.00659517       0.00000000
Si      -0.00518022      -2.70741429      -2.70992303       0.00000000
Si       2.70860346       0.00625536      -2.71033738       0.00000000
