10
Lattice="16.28999089631971 0.0 0.0 0.0 16.28999089631971 0.0 0.0 0.0 34.529650657227435" Properties=species:S:1:pos:R:3:initial_magmoms:R:1 pbc="T T T"
Si       1.42188894      -0.70218045      -1.77109583       0.00000000
Si      -1.34464176      -1.19793402       1.62431853       0.00000000
Si      -1.81682370      -0.22586085      -1.63760413       0.00000000
Si       1.31354415       1.43479062       1.56298348       0.00000000
Si       1.58996916       1.56814056      -2.64984140       0.00000000
Si       2.69713530      -2.42815482      -0.11374073       0.00000000
Si      -3.01018023      -2.06926983       0.13245581       0.00000000
Si      -2.28068145       2.07365184      -2.10299502       0.00000000
Si       0.10261071      -2.47601484       3.04885733       0.00000000
Si      -2.59957449       0.24812928       3.07538993       0.00000000
