10
Lattice="16.28999089631971 0.0 0.0 0.0 16.28999089631971 0.0 0.0 0.0 34.529650657227435" Properties=species:S:1:pos:R:3:initial_magmoms:R:1 pbc="T T T"
Si      -1.98122238      -1.21855716       0.15362250       0.00000000
Si       2.12530743      -0.99950553       0.20051379       0.00000000
Si       0.30261933       0.14631678      -2.39791293       0.00000000
Si      -0.34036326       1.87499529       1.50255859       0.00000000
Si       3.46587669       0.96650199      -0.33448891       0.00000000
Si      -0.66183012       3.62074572      -0.04195355       0.00000000
Si      -3.33602910      -0.50920911      -1.68673985       0.00000000
Si      -1.46453616      -3.48452874      -0.17133622       0.00000000
Si       2.35517562      -2.60724708      -1.53663937       0.00000000
Si       0.76401729       2.35261809      -2.94033952       0.00000000
