10
Lattice="16.28999089631971 0.0 0.0 0.0 16.28999089631971 0.0 0.0 0.0 34.529650657227435" Properties=species:S:1:pos:R:3:initial_magmoms:R:1 pbc="T T T"
Si       1.98122238       1.21855716      -0.15362250       0.00000000
Si       0.51668622      -2.26597158      -0.32495872       0.00000000
Si      -1.35480672       0.70934805      -1.84036235       0.00000000
Si      -1.11193911       0.12865842       2.11870602       0.00000000
Si      -1.52440191      -3.04363989      -1.31095345       0.00000000
Si       2.28384171       1.36487394      -2.55153543       0.00000000
Si       1.64085912       3.09355245       1.34893609       0.00000000
Si       1.19353572      -3.07276641       1.83255864       0.00000000
Si      -2.67665877      -1.62909774       2.13679957       0.00000000
Si       0.19085364       1.26066681      -3.59433146       0.00000000
