10
Lattice="16.28999089631971 0.0 0.0 0.0 16.28999089631971 0.0 0.0 0.0 34.529650657227435" Properties=species:S:1:pos:R:3:initial_magmoms:R:1 pbc="T T T"
Si      -1.96392959      -1.09613620       0.61255634       0.00000000
Si       1.10084562       1.26511137       1.65245189       0.00000000
Si       1.48230855      -1.61593381      -0.88043752       0.00000000
Si      -0.68136020       1.33909078      -1.85548634       0.00000000
Si       0.94384260       2.96954548      -1.45421705       0.00000000
Si      -2.19817979      -2.25756433      -1.40566833       0.00000000
Si       0.40666356       3.31543105       0.87919446       0.00000000
Si       3.13577613       1.69576522       0.47170982       0.00000000
Si      -0.06038703      -2.91351376      -2.15623977       0.00000000
Si      -1.34173074      -2.51879077       2.35506161       0.00000000
