10
Lattice="16.28999089631971 0.0 0.0 0.0 16.28999089631971 0.0 0.0 0.0 34.529650657227435" Properties=species:S:1:pos:R:3:initial_magmoms:R:1 pbc="T T T"
Si       0.21818826       2.25528534       0.70091777       0.00000000
Si       2.21037381      -0.75367314       0.42571630       0.00000000
Si      -1.75143564      -1.23059547       1.11496304       0.00000000
Si      -1.00620072       0.06786414      -2.23009873       0.00000000
Si      -1.93557780      -2.96168490      -0.38352104       0.00000000
Si      -0.05167188       3.29378913      -1.42334753       0.00000000
Si      -2.02702986       2.19155886      -2.03362491       0.00000000
Si      -3.61624968       0.17883162       0.60540870       0.00000000
Si       1.94113269      -2.19704859       2.23973251       0.00000000
Si      -2.57092038      -1.68989202      -2.21200519       0.00000000
