10
Lattice="16.28999089631971 0.0 0.0 0.0 16.28999089631971 0.0 0.0 0.0 34.529650657227435" Properties=species:S:1:pos:R:3:initial_magmoms:R:1 pbc="T T T"
Si       1.33180524       1.35966018       1.34089067       0.00000000
Si      -1.35487188       1.35502568      -1.35439177       0.00000000
Si       1.35663120      -1.35731538      -1.35421913       0.00000000
Si      -1.34913780      -1.35404109       1.39313406       0.00000000
Si       2.63177982      -0.01593994       2.69790670       0.00000000
Si      -2.71197549      -2.71406061       0.00797635       0.00000000
Si       0.00042354      -2.71480995      -2.71154592       0.00000000
Si      -2.71443528      -0.00072013      -2.71192575       0.00000000
Si       0.00156384       2.71493117      -2.71230557       0.00000000
Si       2.71544526      -0.00045400      -2.71206387       0.00000000
