10
Lattice="16.28999089631971 0.0 0.0 0.0 16.28999089631971 0.0 0.0 0.0 34.529650657227435" Properties=species:S:1:pos:R:3:initial_magmoms:R:1 pbc="T T T"
Si      -1.59625710       1.56051099      -0.60837825       0.00000000
Si       1.48393755       0.14245605       1.83552820       0.00000000
Si       1.05523362      -0.91013859      -1.92112725       0.00000000
Si      -1.38942297      -1.96253775       0.02344565       0.00000000
Si       1.14289011      -2.07552519       2.47153019       0.00000000
Si       0.42313275      -3.35745045       0.57484995       0.00000000
Si       2.07894609       2.19105943      -1.75510859       0.00000000
Si      -0.87544089      -0.36872415      -3.58462863       0.00000000
Si      -2.59752195       0.87249240      -2.56672849       0.00000000
Si      -3.73324446       0.91197936       0.11425868       0.00000000
