10
Lattice="16.28999089631971 0.0 0.0 0.0 16.28999089631971 0.0 0.0 0.0 34.529650657227435" Properties=species:S:1:pos:R:3:initial_magmoms:R:1 pbc="T T T"
Si       2.05491834       1.00820439      -0.46784250       0.00000000
Si       0.64319436      -2.21879574      -0.58873087       0.00000000
Si      -1.53942129       1.06258041      -1.48415427       0.00000000
Si      -0.48283560      -0.01601307       2.35513067       0.00000000
Si       1.98180882       1.40180337      -2.74096520       0.00000000
Si      -0.95547366      -2.37529377       2.64400589       0.00000000
Si       0.91305450      -3.25729953       1.53553442       0.00000000
Si       2.02500990       3.15891023       0.38545471       0.00000000
Si      -1.33216362      -3.32102601      -1.19900826       0.00000000
Si       1.58801436       0.71788401       3.37102809       0.00000000
