10
Lattice="16.28999089631971 0.0 0.0 0.0 16.28999089631971 0.0 0.0 0.0 34.529650657227435" Properties=species:S:1:pos:R:3:initial_magmoms:R:1 pbc="T T T"
Si      -1.38293955      -1.35662306       1.33667805       0.00000000
Si      -1.35856971       1.35705474      -1.36174659       0.00000000
Si       1.35780408      -1.36112887      -1.35888063       0.00000000
Si       1.36977723       1.35944937       1.35456442       0.00000000
Si       2.62562220      -0.09278784       2.69642193       0.00000000
Si      -0.03572397       2.65285908       2.73039912       0.00000000
Si      -2.70800073       2.70606222      -0.00659517       0.00000000
Si      -0.08296497      -2.73222318       2.69369408       0.00000000
Si       2.71490769       2.71358820       0.00117401       0.00000000
Si       0.00060273       2.71231758      -2.71693255       0.00000000
