10
Lattice="16.28999089631971 0.0 0.0 0.0 16.28999089631971 0.0 0.0 0.0 34.529650657227435" Properties=species:S:1:pos:R:3:initial_magmoms:R:1 pbc="T T T"
Si      -2.02145868      -0.81354866       0.75481859       0.00000000
Si       1.53717327       0.56694902       1.63715524       0.00000000
Si      -0.85740786       1.66406423      -1.42006721       0.00000000
Si       0.63280134      -1.95735657      -1.15470669       0.00000000
Si      -0.05435973       0.83245972      -3.46550127       0.00000000
Si      -0.33389613      -1.53990903      -3.27600244       0.00000000
Si      -3.27425742      -1.16900103      -1.25194224       0.00000000
Si       2.01057696      -1.38723915       2.86043786       0.00000000
Si       3.46278159       1.43704679       0.54118352       0.00000000
Si      -1.69103232      -2.14193856       2.66534522       0.00000000
