10
Lattice="16.28999089631971 0.0 0.0 0.0 16.28999089631971 0.0 0.0 0.0 34.529650657227435" Properties=species:S:1:pos:R:3:initial_magmoms:R:1 pbc="T T T"
Si      -0.64189116      -1.86533532      -1.31109157       0.00000000
Si      -1.99471050       0.14576292       1.28181041       0.00000000
Si       1.63760112      -0.93136446       1.46202076       0.00000000
Si      -0.41327730       2.15624214      -1.07666964       0.00000000
Si      -2.25091962       1.22161968      -2.34093897       0.00000000
Si      -3.50194275       0.25316289      -0.52726806       0.00000000
Si      -1.60906104       2.15813178       2.41503965       0.00000000
Si      -1.92244806      -0.96888033      -3.06333420       0.00000000
Si       0.75297267      -3.27834947       1.64651278       0.00000000
Si       1.27827630       0.12427641       3.62692747       0.00000000
