10
Lattice="16.28999089631971 0.0 0.0 0.0 16.28999089631971 0.0 0.0 0.0 34.529650657227435" Properties=species:S:1:pos:R:3:initial_magmoms:R:1 pbc="T T T"
Si      -0.26521749       1.72564042      -1.68190569       0.00000000
Si      -2.18797506      -1.04511264      -0.20186045       0.00000000
Si      -0.85121766       1.69744243       1.58950430       0.00000000
Si       1.94693193      -1.23903273       1.38491600       0.00000000
Si       1.60759494      -1.42483647      -2.36804477       0.00000000
Si      -2.11783032       2.88600971      -0.47989335       0.00000000
Si      -3.23863119       0.90369590      -1.39814087       0.00000000
Si      -1.89123642       0.25785441       3.13036462       0.00000000
Si      -1.83651831       1.02593606      -3.30041491       0.00000000
Si      -3.55078017      -0.74122269       1.74982555       0.00000000
