10
Lattice="16.28999089631971 0.0 0.0 0.0 16.28999089631971 0.0 0.0 0.0 34.529650657227435" Properties=species:S:1:pos:R:3:initial_magmoms:R:1 pbc="T T T"
Si       1.91734929       0.76323537      -1.15956018       0.00000000
Si       1.42519581      -1.24877511       1.47495902       0.00000000
Si      -1.27001727       1.47152457       1.45813962       0.00000000
Si      -1.38360744      -1.20300021      -1.70408552       0.00000000
Si      -2.64520278      -2.64727161      -0.10822980       0.00000000
Si       2.74144410      -2.64811869       0.03225416       0.00000000
Si       2.70159876       2.71427238       0.04613164       0.00000000
Si      -2.76719859       2.65994523      -0.02736131       0.00000000
Si       0.09133803      -2.59154352       2.84776892       0.00000000
Si      -2.62545930       0.12131163       2.84317648       0.00000000
