10
Lattice="16.28999089631971 0.0 0.0 0.0 16.28999089631971 0.0 0.0 0.0 34.529650657227435" Properties=species:S:1:pos:R:3:initial_magmoms:R:1 pbc="T T T"
Si      -0.80816319      -1.77355746      -1.37362480       0.00000000
Si       0.49324491      -0.77318856       2.21418056       0.00000000
Si       1.86382035       0.97166592      -1.22953249       0.00000000
Si      -1.90465938       1.58001597      -0.01049702       0.00000000
Si      -2.13446241      -0.37675512      -2.75995652       0.00000000
Si       0.58756401       2.35007685      -2.73295432       0.00000000
Si      -2.89872405       0.54014382       2.25868930       0.00000000
Si      -1.60357131      -1.29104766       3.14841531       0.00000000
Si      -0.76580919       3.57545952      -1.23243298       0.00000000
Si       2.87184555       2.75123439      -0.10459037       0.00000000
