10
Lattice="16.28999089631971 0.0 0.0 0.0 16.28999089631971 0.0 0.0 0.0 34.529650657227435" Properties=species:S:1:pos:R:3:initial_magmoms:R:1 pbc="T T T"
Si       1.06025094       1.85881932      -1.10743523       0.00000000
Si       1.49718132      -1.18842066       1.48550093       0.00000000
Si      -1.22463333       1.50327378       1.50145364       0.00000000
Si      -1.31354415      -1.43479062      -1.56298348       0.00000000
Si      -2.65818591      -2.63272464       0.06133505       0.00000000
Si      -2.61922023       2.71533123       0.00246542       0.00000000
Si       0.14173929      -2.53863360       2.87053779       0.00000000
Si       2.76719859      -2.65994523       0.02736131       0.00000000
Si      -2.57108328       0.17837550       2.87927379       0.00000000
Si      -0.71407215       3.61113462      -1.32124126       0.00000000
