10
Lattice="16.28999089631971 0.0 0.0 0.0 16.28999089631971 0.0 0.0 0.0 34.529650657227435" Properties=species:S:1:pos:R:3:initial_magmoms:R:1 pbc="T T T"
Si       1.29080331      -0.42254631       1.87931182       0.00000000
Si      -1.00802520      -1.77956847      -1.12494212       0.00000000
Si       1.75638780       0.98960121      -1.20608684       0.00000000
Si      -1.78442289       1.66161258       0.10731821       0.00000000
Si      -2.28428154      -0.40115754      -2.62836395       0.00000000
Si       0.42982794       2.31873489      -2.64528349       0.00000000
Si       2.56992669       2.65960314       0.24519519       0.00000000
Si      -2.02584069       2.06806437       2.49286952       0.00000000
Si      -0.99364113       3.52409715      -1.21872470       0.00000000
Si       2.65246812       1.47400065       2.40733953       0.00000000
