10
Lattice="16.28999089631971 0.0 0.0 0.0 16.28999089631971 0.0 0.0 0.0 34.529650657227435" Properties=species:S:1:pos:R:3:initial_magmoms:R:1 pbc="T T T"
Si      -2.12530743       0.99950553      -0.20051379       0.00000000
Si       0.56848842      -0.84377313       2.13386454       0.00000000
Si       0.22986819      -1.60774155      -1.73715317       0.00000000
Si       1.34056926       1.96600752      -0.53500271       0.00000000
Si      -1.82268810       1.14582231      -2.59842672       0.00000000
Si      -0.01335780      -0.19381842      -3.58159002       0.00000000
Si       0.75883707       1.30565979       3.32800412       0.00000000
Si       3.50814924       1.19809692      -0.31667160       0.00000000
Si       2.61851976      -2.02285962       1.74626900       0.00000000
Si       2.51621856      -2.32064082      -1.95969689       0.00000000
