10
Lattice="16.28999089631971 0.0 0.0 0.0 16.28999089631971 0.0 0.0 0.0 34.529650657227435" Properties=species:S:1:pos:R:3:initial_magmoms:R:1 pbc="T T T"
Si       1.66648329       1.24766739       0.99970300       0.00000000
Si       1.13498946      -0.01979235      -2.02979212       0.00000000
Si      -0.16808022      -2.27032101       0.87874557       0.00000000
Si      -1.91477547       1.55574387      -0.42281581       0.00000000
Si      -1.58996916      -1.56814056       2.64984140       0.00000000
Si      -0.08700489      -3.27406194      -1.46077769       0.00000000
Si       1.96657767      -2.21475582      -2.10965925       0.00000000
Si       0.78382593       1.72546938       3.10538965       0.00000000
Si      -1.92995775       1.42664562      -2.85553465       0.00000000
Si       1.98145044       3.24622233      -0.28486978       0.00000000
