10
Lattice="16.28999089631971 0.0 0.0 0.0 16.28999089631971 0.0 0.0 0.0 34.529650657227435" Properties=species:S:1:pos:R:3:initial_magmoms:R:1 pbc="T T T"
Si       1.35799956       1.35570997      -1.35701603       0.00000000
Si       1.35751086      -1.35788553       1.35708509       0.00000000
Si      -1.35837423       1.35738266       1.35694697       0.00000000
Si      -1.35840681      -1.35684297      -1.35774115       0.00000000
Si       2.71270854       0.00265527      -2.71113157       0.00000000
Si      -0.00127062       2.71299103       2.71434283       0.00000000
Si       2.71365336      -0.00099369       2.71385941       0.00000000
Si       2.71456560       2.71436753       0.00013812       0.00000000
Si       2.71456560      -2.71494027      -0.00031077       0.00000000
Si       0.00024435      -2.71603170       2.71420471       0.00000000
