10
Lattice="16.28999089631971 0.0 0.0 0.0 16.28999089631971 0.0 0.0 0.0 34.529650657227435" Properties=species:S:1:pos:R:3:initial_magmoms:R:1 pbc="T T T"
Si       1.46479680      -0.29339919       1.88248855       0.00000000
Si       1.34366436      -0.84023820      -1.83190258       0.00000000
Si      -1.29655368       2.04951562       0.17461654       0.00000000
Si      -2.32026615      -1.05168240       0.00859789       0.00000000
Si      -0.53051643      -1.80996561      -3.11878885       0.00000000
Si      -1.56271599      -3.26599839       0.59280537       0.00000000
Si       0.33614415       0.73660122       3.66874290       0.00000000
Si      -3.37549977      -0.14154381       1.92972514       0.00000000
Si       2.22148359       1.00649394      -3.07911426       0.00000000
Si       1.94893560      -2.57447160       2.40602740       0.00000000
