10
Lattice="16.28999089631971 0.0 0.0 0.0 16.28999089631971 0.0 0.0 0.0 34.529650657227435" Properties=species:S:1:pos:R:3:initial_magmoms:R:1 pbc="T T T"
Si       1.35760106      -1.35408996      -1.35635997       0.00000000
Si      -1.35782206      -1.35526284       1.35729227       0.00000000
Si       1.35711399       1.36010097       1.35705056       0.00000000
Si      -1.35588355       1.36026387      -1.36271342       0.00000000
Si       2.71365885      -2.71179630       0.00110495       0.00000000
Si      -0.00055759      -2.71241532       2.71520607       0.00000000
Si       2.71476657       0.00272043       2.71461906       0.00000000
Si      -2.71497454       0.00171045       2.71451547       0.00000000
Si      -2.71771126      -2.71332756      -0.00041436       0.00000000
Si       2.71421271       2.71762812       0.00003453       0.00000000
