10
Lattice="16.28999089631971 0.0 0.0 0.0 16.28999089631971 0.0 0.0 0.0 34.529650657227435" Properties=species:S:1:pos:R:3:initial_magmoms:R:1 pbc="T T T"
Si       1.90263942       0.81994249      -1.26056918       0.00000000
Si       1.34226342      -1.29768996       1.55629021       0.00000000
Si      -1.34389242       1.41649858       1.52752699       0.00000000
Si      -1.54675179      -1.29883984      -1.59885635       0.00000000
Si      -2.64914496      -2.67951508       0.04676353       0.00000000
Si       2.56288941      -2.78235385       0.19172254       0.00000000
Si       2.66188374       2.72440639       0.11058472       0.00000000
Si      -2.72476314       2.72525347      -0.02989924       0.00000000
Si       1.15719273       0.91116649      -3.61069304       0.00000000
Si       3.63196953      -1.02550926      -0.99550454       0.00000000
