10
Lattice="16.28999089631971 0.0 0.0 0.0 16.28999089631971 0.0 0.0 0.0 34.529650657227435" Properties=species:S:1:pos:R:3:initial_magmoms:R:1 pbc="T T T"
Si      -1.17516060       1.50506568      -1.35190564       0.00000000
Si       1.53100655      -1.23229777      -1.34596653       0.00000000
Si      -2.00094957      -0.66702663       1.33212014       0.00000000
Si       1.36597581       0.27453537       2.37591753       0.00000000
Si      -0.81585207      -0.70185465       3.36605582       0.00000000
Si      -2.55433716      -2.63468663       0.09837503       0.00000000
Si      -2.52270198       0.13553280      -2.72014381       0.00000000
Si       0.19064187      -2.58219518      -2.72401113       0.00000000
Si      -2.57095296       2.76081291       0.12934814       0.00000000
Si       2.83274045      -2.61508976       0.09792614       0.00000000
