10
Lattice="16.28999089631971 0.0 0.0 0.0 16.28999089631971 0.0 0.0 0.0 34.529650657227435" Properties=species:S:1:pos:R:3:initial_magmoms:R:1 pbc="T T T"
Si       2.19621847       0.14195432       0.71870055       0.00000000
Si      -1.16561466       2.03907143       0.12351263       0.00000000
Si      -0.63703674      -1.70121750       1.54199147       0.00000000
Si      -0.40710339      -0.71371770      -2.24214959       0.00000000
Si       2.74014809      -2.16896856       0.63244543       0.00000000
Si      -2.66651010      -1.86571392      -1.76940388       0.00000000
Si       1.95738264       0.94849991       3.00162968       0.00000000
Si      -0.79566876       3.06556949      -1.94809492       0.00000000
Si      -0.17133822       1.36701119      -3.46332590       0.00000000
Si      -2.82846528      -1.25316105       2.13814622       0.00000000
