10
Lattice="16.28999089631971 0.0 0.0 0.0 16.28999089631971 0.0 0.0 0.0 34.529650657227435" Properties=species:S:1:pos:R:3:initial_magmoms:R:1 pbc="T T T"
Si      -2.32806906      -0.29830641      -0.48635040       0.00000000
Si       1.59172848      -0.21594417      -1.82810432       0.00000000
Si      -0.52975080      -1.62045168       1.86846950       0.00000000
Si       0.71521245       2.09750366       1.25477368       0.00000000
Si       2.16152010      -2.48347959      -1.83797980       0.00000000
Si       3.32547318       1.30243437      -1.24324077       0.00000000
Si      -1.98873207      -0.11250267       3.26661037       0.00000000
Si      -1.03086378      -3.69161115       0.41874131       0.00000000
Si      -2.82460455       0.47827440      -2.63057385       0.00000000
Si      -2.83183731      -2.59511496      -0.62961400       0.00000000
