10
Lattice="16.28999089631971 0.0 0.0 0.0 16.28999089631971 0.0 0.0 0.0 34.529650657227435" Properties=species:S:1:pos:R:3:initial_magmoms:R:1 pbc="T T T"
Si      -1.35480672      -1.35353610      -1.39562020       0.00000000
Si       1.36008468       1.36319607      -1.39085511       0.00000000
Si       1.31631345      -1.44340803       1.45456235       0.00000000
Si      -1.43345484       1.33095816       1.47769723       0.00000000
Si      -2.69993718      -2.70767493      -0.04222979       0.00000000
Si       2.71210581      -2.69915526      -0.02669143       0.00000000
Si      -2.70971118       2.70936909      -0.02572460       0.00000000
Si       2.72363913       2.71135647      -0.00569740       0.00000000
Si      -2.71137276       0.00241092      -2.75570937       0.00000000
Si       0.00211770      -2.71192662      -2.75660714       0.00000000
