10
Lattice="16.28999089631971 0.0 0.0 0.0 16.28999089631971 0.0 0.0 0.0 34.529650657227435" Properties=species:S:1:pos:R:3:initial_magmoms:R:1 pbc="T T T"
Si       0.18116109      -1.54067562      -1.73818906       0.00000000
Si       0.97249671      -0.81979425       1.99256913       0.00000000
Si       1.39548285       1.90254168      -0.20365599       0.00000000
Si      -2.05003134       1.17908649       0.38759555       0.00000000
Si      -0.17567136       0.95796603       2.98098094       0.00000000
Si       0.60176889       3.01185810       1.79619890       0.00000000
Si      -0.10230120      -0.29778120      -3.70596589       0.00000000
Si      -2.61851976       2.02285962      -1.74626900       0.00000000
Si       2.42453844      -2.32160193      -1.75058521       0.00000000
Si       0.88962948       3.22095654      -2.06294060       0.00000000
