10
Lattice="16.28999089631971 0.0 0.0 0.0 16.28999089631971 0.0 0.0 0.0 34.529650657227435" Properties=species:S:1:pos:R:3:initial_magmoms:R:1 pbc="T T T"
Si      -1.35380873       1.35267273       1.36029635       0.00000000
Si      -1.35735066      -1.35803214      -1.35642902       0.00000000
Si       1.35797350       1.35710361      -1.35701603       0.00000000
Si       1.35381955      -1.35338949       1.36585562       0.00000000
Si       2.71478389       2.71243161       0.00044889       0.00000000
Si      -2.71323049       2.71529865       0.00093230       0.00000000
Si      -2.71461514      -0.00087966      -2.71434283       0.00000000
Si       0.00032091       2.71448415      -2.71458453       0.00000000
Si       2.71581016      -0.00084708      -2.71451547       0.00000000
Si       0.00063205      -2.71602681      -2.71451547       0.00000000
