10
Lattice="16.28999089631971 0.0 0.0 0.0 16.28999089631971 0.0 0.0 0.0 34.529650657227435" Properties=species:S:1:pos:R:3:initial_magmoms:R:1 pbc="T T T"
Si      -1.35275418       1.35542574       1.35781021       0.00000000
Si      -1.35552348      -1.35793440      -1.35660167       0.00000000
Si       1.35915615       1.35720135      -1.35698150       0.00000000
Si       1.35839052      -1.35630540       1.36523409       0.00000000
Si       0.00270414       2.70976005       2.71344505       0.00000000
Si      -2.71208952       2.71321353       0.00027624       0.00000000
Si      -2.71347417      -0.00063531      -2.71399753       0.00000000
Si       2.71629234       2.71205694       0.00089777       0.00000000
Si       0.00223173       2.71430496      -2.71423924       0.00000000
Si      -2.71306692      -2.71709055       0.00037983       0.00000000
