10
Lattice="16.28999089631971 0.0 0.0 0.0 16.28999089631971 0.0 0.0 0.0 34.529650657227435" Properties=species:S:1:pos:R:3:initial_magmoms:R:1 pbc="T T T"
Si      -1.75638780      -0.98960121       1.20608684       0.00000000
Si       0.81353889       1.67000193       1.45128203       0.00000000
Si      -1.32655986       1.32913368      -1.43919664       0.00000000
Si       1.39268097      -1.38877137      -1.40224990       0.00000000
Si      -0.46558449      -1.41214752       3.08539866       0.00000000
Si       2.58219306       2.54922210       0.00939207       0.00000000
Si      -2.75002893       2.53449594      -0.01263786       0.00000000
Si       0.89608032       0.48439944       3.61342637       0.00000000
Si      -0.87584814       3.50422335       1.27424841       0.00000000
Si      -3.54081069       0.67201137       1.31340506       0.00000000
