10
Lattice="16.28999089631971 0.0 0.0 0.0 16.28999089631971 0.0 0.0 0.0 34.529650657227435" Properties=species:S:1:pos:R:3:initial_magmoms:R:1 pbc="T T T"
Si      -1.17520947      -0.36566163       1.95071917       0.00000000
Si      -1.29080331       0.42254631      -1.87931182       0.00000000
Si       1.13507091      -2.06622360       0.39833427       0.00000000
Si       1.36166481       1.89654696       0.52802771       0.00000000
Si       0.46558449       1.41214752      -3.08539866       0.00000000
Si       3.40021237       0.41449905       1.00191290       0.00000000
Si       2.41342866      -1.42974072       2.36669811       0.00000000
Si       1.27912338       3.08214945      -1.63411663       0.00000000
Si      -1.58236173       1.70870697       2.91451132       0.00000000
Si       0.31019418      -1.35084825       3.53393907       0.00000000
