10
Lattice="16.28999089631971 0.0 0.0 0.0 16.28999089631971 0.0 0.0 0.0 34.529650657227435" Properties=species:S:1:pos:R:3:initial_magmoms:R:1 pbc="T T T"
Si       1.47848040      -0.15433146       1.79726932       0.00000000
Si      -1.50034972      -1.70593767       0.58448372       0.00000000
Si       0.90070668      -0.84703113      -2.06180112       0.00000000
Si      -0.98027193       2.25051237      -0.27333687       0.00000000
Si       1.81881108      -2.30394357       0.64598107       0.00000000
Si      -2.32055748       1.13052600      -1.89612777       0.00000000
Si      -3.46409198      -0.46478628      -0.49978244       0.00000000
Si      -0.95222543      -0.13232367      -3.41204934       0.00000000
Si       2.84091084       0.89529840      -2.17761364       0.00000000
Si      -1.99049953      -2.18279484       2.77425180       0.00000000
