10
Lattice="16.28999089631971 0.0 0.0 0.0 16.28999089631971 0.0 0.0 0.0 34.529650657227435" Properties=species:S:1:pos:R:3:initial_magmoms:R:1 pbc="T T T"
Si       1.96392959       1.09613620      -0.61255634       0.00000000
Si       0.62219885      -1.42265457       1.74250526       0.00000000
Si      -0.23425020      -1.16142813      -2.01822468       0.00000000
Si      -2.12550291       0.80368344       0.68361841       0.00000000
Si      -1.32017418      -1.40025582       3.08957675       0.00000000
Si       1.28256939       2.43522698      -2.46804269       0.00000000
Si      -1.88996580       0.86727960       3.09945223       0.00000000
Si       3.44623814      -0.51979761      -1.49299387       0.00000000
Si       1.90354256      -1.81737756      -2.76879611       0.00000000
Si      -2.59890660       2.75787161      -0.53966421       0.00000000
