10
Lattice="16.28999089631971 0.0 0.0 0.0 16.28999089631971 0.0 0.0 0.0 34.529650657227435" Properties=species:S:1:pos:R:3:initial_magmoms:R:1 pbc="T T T"
Si       2.09222963       0.98139105       0.37837612       0.00000000
Si      -1.03615803       1.14562683      -1.79578455       0.00000000
Si       0.50168966      -1.89775242      -1.43912758       0.00000000
Si      -1.10016144      -0.82510479       2.08141398       0.00000000
Si      -1.67700663      -2.65979862      -1.06734663       0.00000000
Si       0.90621500       1.12322808      -3.14285603       0.00000000
Si       2.72592692       1.90190637      -1.74975650       0.00000000
Si       1.84768252      -2.41766406       2.26676924       0.00000000
Si       3.36254012      -0.69691878       1.62127159       0.00000000
Si      -2.33502489      -2.74512564       1.24897269       0.00000000
