10
Lattice="16.28999089631971 0.0 0.0 0.0 16.28999089631971 0.0 0.0 0.0 34.529650657227435" Properties=species:S:1:pos:R:3:initial_magmoms:R:1 pbc="T T T"
Si      -0.68567446      -2.31505335      -0.05904574       0.00000000
Si       2.17837536      -0.27518697      -1.03122859       0.00000000
Si      -1.47772684       0.49024755      -1.96674094       0.00000000
Si      -0.70256719       1.07313633       2.51845601       0.00000000
Si       1.45690755      -3.28817397       0.81431321       0.00000000
Si      -3.47618404       1.40595732      -0.94034650       0.00000000
Si       1.49056269       3.44390148       1.11237332       0.00000000
Si       2.85291168      -2.60591130      -0.95156864       0.00000000
Si      -0.58567015      -3.21810905      -2.27957975       0.00000000
Si      -3.19593088      -2.42303976       0.21843469       0.00000000
