10
Lattice="16.28999089631971 0.0 0.0 0.0 16.28999089631971 0.0 0.0 0.0 34.529650657227435" Properties=species:S:1:pos:R:3:initial_magmoms:R:1 pbc="T T T"
Si       0.95177583       0.04608441      -2.09256706       0.00000000
Si       1.50185655      -0.64034361       1.62734782       0.00000000
Si      -0.35634538       2.27877552       0.07586168       0.00000000
Si      -0.45430366      -1.36664955       2.84411365       0.00000000
Si      -2.19312989      -2.37076515       1.40608269       0.00000000
Si      -0.92804782       0.48148353      -3.44923779       0.00000000
Si       1.94688306       2.24551134      -2.24995329       0.00000000
Si      -1.90574171       2.89342980       1.64529116       0.00000000
Si       2.31805071       1.28563938       2.81511218       0.00000000
Si      -1.49056269      -3.44390148      -1.11237332       0.00000000
