10
Lattice="16.28999089631971 0.0 0.0 0.0 16.28999089631971 0.0 0.0 0.0 34.529650657227435" Properties=species:S:1:pos:R:3:initial_magmoms:R:1 pbc="T T T"
Si       1.35566459       1.35571896       1.35604920       0.00000000
Si       1.35631945      -1.35772263      -1.35736133       0.00000000
Si      -1.35723196      -1.35690813       1.35815551       0.00000000
Si      -1.35827452       1.35718506      -1.35722321       0.00000000
Si       2.70494737       0.00488700       2.71158045       0.00000000
Si      -0.00143671       2.71303434      -2.71334146       0.00000000
Si       2.71302721       2.71401174      -0.00027624       0.00000000
Si       2.71341817      -0.00019548      -2.71437736       0.00000000
Si       2.71397203      -2.71510317       0.00020718       0.00000000
Si       0.00068285       2.71661814       2.71430830       0.00000000
