10
Lattice="16.28999089631971 0.0 0.0 0.0 16.28999089631971 0.0 0.0 0.0 34.529650657227435" Properties=species:S:1:pos:R:3:initial_magmoms:R:1 pbc="T T T"
Si      -1.23505730       1.45158561      -1.38381105       0.00000000
Si       0.83764809       1.83459609       1.24255017       0.00000000
Si       1.50410457      -1.24786287      -1.38543395       0.00000000
Si      -1.23037230      -1.57509639       1.75731849       0.00000000
Si      -2.57065785      -2.69508276       0.13452759       0.00000000
Si      -2.56527824       0.10586871      -2.75166940       0.00000000
Si       0.13898628      -2.60586243      -2.75439724       0.00000000
Si      -2.73011345       2.67698457       0.05307210       0.00000000
Si       2.59081047      -2.93031036      -0.14695828       0.00000000
Si       0.15029154       2.82015738      -2.74590294       0.00000000
