10
Lattice="16.28999089631971 0.0 0.0 0.0 16.28999089631971 0.0 0.0 0.0 34.529650657227435" Properties=species:S:1:pos:R:3:initial_magmoms:R:1 pbc="T T T"
Si       1.35530453       1.35725022       1.35667073       0.00000000
Si       1.35726421      -1.35723393      -1.35739586       0.00000000
Si      -1.35742097       1.35741312      -1.35729227       0.00000000
Si      -1.35836579      -1.35943308       1.35767209       0.00000000
Si       0.00155599       2.71258329       2.71406659       0.00000000
Si       0.00163413      -2.71275741       2.71406659       0.00000000
Si       2.71274045      -0.00107514      -2.71479171       0.00000000
Si       0.00079139       2.71441327      -2.71437736       0.00000000
Si       2.71397849      -2.71536381      -0.00051795       0.00000000
Si       2.71474412       2.71487174      -0.00006906       0.00000000
