10
Lattice="16.28999089631971 0.0 0.0 0.0 16.28999089631971 0.0 0.0 0.0 34.529650657227435" Properties=species:S:1:pos:R:3:initial_magmoms:R:1 pbc="T T T"
Si      -1.33022094      -1.34571690      -1.36785835       0.00000000
Si       1.23505730      -1.45158561       1.38381105       0.00000000
Si       1.38534884       1.36857177      -1.36209189       0.00000000
Si      -1.49505615       1.22539896       1.43688316       0.00000000
Si       2.07270539       0.38301048       2.62636123       0.00000000
Si       0.36041462       2.27532204       2.83025893       0.00000000
Si      -2.68456824      -2.71259451       0.02524119       0.00000000
Si      -2.69022087       0.00760743      -2.72425284       0.00000000
Si      -2.68352568       2.73354345       0.00814900       0.00000000
Si       0.02476080      -2.70661608      -2.72611744       0.00000000
