10
Lattice="10.86 0.0 0.0 0.0 10.86 0.0 0.0 0.0 10.86" Properties=species:S:1:pos:R:3:initial_magmoms:R:1 pbc="T T T"
Si       1.47252912      -1.15258266      -1.12634490       0.00000000
Si      -1.24247088       1.56241734      -1.12634490       0.00000000
Si      -1.24247088      -1.15258266       1.58865510       0.00000000
Si       0.11502912      -2.51008266      -2.48384490       0.00000000
Si      -2.59997088       0.20491734      -2.48384490       0.00000000
Si      -2.59997088      -2.51008266       0.23115510       0.00000000
Si       2.86900566       0.28268580      -2.42756838       0.00000000
Si       2.83002912      -2.51008266       0.23115510       0.00000000
Si       0.11502912      -2.51008266       2.94615510       0.00000000
Si      -2.59997088       2.91991734       0.23115510       0.00000000
