10
Lattice="10.86 0.0 0.0 0.0 10.86 0.0 0.0 0.0 10.86" Properties=species:S:1:pos:R:3:initial_magmoms:R:1 pbc="T T T"
Si       1.42150884       1.36538436      -1.18793196       0.00000000
Si      -1.24920408      -1.40964972      -1.36147476       0.00000000
Si      -1.37975214       1.23074208       1.47807858       0.00000000
Si       1.26652578      -1.42081380       1.44341346       0.00000000
Si       0.08060292       2.54829900      -2.62022478       0.00000000
Si      -2.63439708       2.54829900       0.09477522       0.00000000
Si      -2.63439708      -0.16670100      -2.62022478       0.00000000
Si       2.79560292       2.54829900       0.09477522       0.00000000
Si       0.08060292       2.54829900       2.80977522       0.00000000
Si       2.79560292      -0.16670100      -2.62022478       0.00000000
