10
Lattice="16.28999089631971 0.0 0.0 0.0 16.28999089631971 0.0 0.0 0.0 34.69518985606464" Properties=species:S:1:pos:R:3:initial_magmoms:R:1 pbc="T T T"
Si       1.43787758      -1.00279611      -1.63421375       0.00000000
Si       1.11984791       2.14381517       0.02359274       0.00000000
Si       0.23578635      -1.33985250       2.01017103       0.00000000
Si      -2.20853208       0.68207859      -0.76346808       0.00000000
Si       3.48012230       0.00504990      -0.96175120       0.00000000
Si      -1.68531357       2.56162435      -2.12515096       0.00000000
Si      -1.48049940      -3.05002557       1.76841482       0.00000000
Si       0.56094615      -0.54056736      -3.82837347       0.00000000
Si       2.88755725       2.16444808      -1.50847831       0.00000000
Si      -0.20783271       0.20294082       3.93325709       0.00000000
