10
Lattice="16.28999089631971 0.0 0.0 0.0 16.28999089631971 0.0 0.0 0.0 34.69518985606464" Properties=species:S:1:pos:R:3:initial_magmoms:R:1 pbc="T T T"
Si       1.34653140      -1.19141543       1.53980461       0.00000000
Si       1.87033635       0.93461594      -1.23338836       0.00000000
Si      -0.97941996      -1.72896914      -1.43344094       0.00000000
Si      -1.35925389       1.52328767       1.49455859       0.00000000
Si       2.46896127      -2.72920772       0.18144554       0.00000000
Si      -2.73193074      -2.58841325       0.01073817       0.00000000
Si       0.00244350      -2.54245916       2.89622423       0.00000000
Si       3.54009393      -1.04884810      -1.13436923       0.00000000
Si       2.72038113       2.80716773       0.09040184       0.00000000
Si       0.68061249      -3.70304021      -1.14009082       0.00000000
