10
Lattice="16.28999089631971 0.0 0.0 0.0 16.28999089631971 0.0 0.0 0.0 34.69518985606464" Properties=species:S:1:pos:R:3:initial_magmoms:R:1 pbc="T T T"
Si       1.35586557       1.35572222      -1.35630512       0.00000000
Si       1.35659862      -1.35688828       1.35734598       0.00000000
Si      -1.35819504       1.35827975       1.35769293       0.00000000
Si      -1.35961227      -1.35993664      -1.35751945       0.00000000
Si       0.00153126      -2.71157217      -2.71344292       0.00000000
Si       2.71445157       0.00319773      -2.71396335       0.00000000
Si       2.71461447      -2.71404825       0.00006939       0.00000000
Si       2.71422351      -0.00105396       2.71469195       0.00000000
Si      -0.00105885      -2.71478130       2.71472665       0.00000000
Si      -2.71551042      -2.71443921      -0.00013878       0.00000000
