10
Lattice="16.28999089631971 0.0 0.0 0.0 16.28999089631971 0.0 0.0 0.0 34.69518985606464" Properties=species:S:1:pos:R:3:initial_magmoms:R:1 pbc="T T T"
Si      -1.35669636       1.35340578      -1.36209922       0.00000000
Si       1.35917244      -1.36226591      -1.36279312       0.00000000
Si       1.35966114       1.37205783       1.36164818       0.00000000
Si      -1.36466217      -1.38087072       1.35984403       0.00000000
Si       2.42287686      -0.28561257       2.69838520       0.00000000
Si      -2.63606409       0.02792106       2.77814949       0.00000000
Si      -2.71585251       2.70958086       0.00121433       0.00000000
Si      -2.71368594      -2.71371953      -0.00482263       0.00000000
Si       2.71704168      -2.71344441      -0.00346952       0.00000000
Si       0.00211770       2.71181259      -2.71965337       0.00000000
