10
Lattice="16.28999089631971 0.0 0.0 0.0 16.28999089631971 0.0 0.0 0.0 34.69518985606464" Properties=species:S:1:pos:R:3:initial_magmoms:R:1 pbc="T T T"
Si      -0.88275510      -1.91186675      -1.21360372       0.00000000
Si       1.88766891       0.83983095      -1.33368384       0.00000000
Si       0.55877958      -0.58400139       2.39615524       0.00000000
Si      -2.09534197       1.61002215       0.00392056       0.00000000
Si       0.44957142       2.18178486      -2.72704345       0.00000000
Si      -2.25208110      -0.58046971      -2.75372406       0.00000000
Si       1.16403453      -2.87687006       2.07557150       0.00000000
Si       3.51258012       1.20405906       0.62583218       0.00000000
Si      -1.00996371       3.46066389      -1.15646071       0.00000000
Si       2.52037251       0.67942332       2.91935899       0.00000000
