10
Lattice="16.28999089631971 0.0 0.0 0.0 16.28999089631971 0.0 0.0 0.0 34.69518985606464" Properties=species:S:1:pos:R:3:initial_magmoms:R:1 pbc="T T T"
Si       1.82239488       1.66472397       0.00735538       0.00000000
Si      -0.99220761      -0.52463574       2.29352681       0.00000000
Si       1.71382203      -1.75463337      -0.71857248       0.00000000
Si      -1.62491121      -0.36422811      -1.95951603       0.00000000
Si      -3.51258012      -1.20405906      -0.62583218       0.00000000
Si      -0.35350929      -1.77301989      -3.37782149       0.00000000
Si       1.55185056       2.85066855      -2.09486204       0.00000000
Si      -2.95380054      -1.78806045       1.77032305       0.00000000
Si       0.63045558      -3.45589811      -2.01284256       0.00000000
Si       3.43402974      -0.67776174      -2.03928031       0.00000000
