10
Lattice="16.28999089631971 0.0 0.0 0.0 16.28999089631971 0.0 0.0 0.0 34.69518985606464" Properties=species:S:1:pos:R:3:initial_magmoms:R:1 pbc="T T T"
Si       1.96159293       1.26342471       0.52320376       0.00000000
Si       0.60525495      -2.29286867      -0.32058373       0.00000000
Si      -0.55877958       0.58400139      -2.39615524       0.00000000
Si      -1.37220444      -0.16196658       2.28658777       0.00000000
Si       3.05492886      -0.39523775       1.83121314       0.00000000
Si       2.19286206      -2.58576287       1.40578049       0.00000000
Si       2.95380054       1.78806045      -1.77032305       0.00000000
Si      -1.38124539      -3.68649446       0.10183044       0.00000000
Si      -1.44153468      -1.32786536      -3.60975896       0.00000000
Si       1.81688886       2.94598623       2.34265522       0.00000000
