10
Lattice="16.28999089631971 0.0 0.0 0.0 16.28999089631971 0.0 0.0 0.0 34.69518985606464" Properties=species:S:1:pos:R:3:initial_magmoms:R:1 pbc="T T T"
Si      -1.32511005      -1.76074863      -0.74622456       0.00000000
Si      -0.84758499       1.88338464      -1.13141077       0.00000000
Si       2.04773445      -0.44605278      -1.10469546       0.00000000
Si      -0.26342559       0.28815381       2.34182254       0.00000000
Si       0.93185316       1.99405890      -2.80850780       0.00000000
Si      -2.85926967       1.01589327      -2.01672843       0.00000000
Si      -3.09281940      -1.78138155       0.78584649       0.00000000
Si       2.98695069       1.69170021      -1.55455355       0.00000000
Si      -2.25724014      -1.11389391      -2.86457526       0.00000000
Si      -2.45501703      -0.77783284       2.83050456       0.00000000
