10
Lattice="16.28999089631971 0.0 0.0 0.0 16.28999089631971 0.0 0.0 0.0 34.69518985606464" Properties=species:S:1:pos:R:3:initial_magmoms:R:1 pbc="T T T"
Si      -0.60202953       2.12978718       0.84784683       0.00000000
Si      -2.13013904      -1.08232177      -0.15879997       0.00000000
Si       0.93213009      -0.64685472       2.11835070       0.00000000
Si       1.37220444       0.16196658      -2.28658777       0.00000000
Si      -2.01785696       1.05031404       2.53129308       0.00000000
Si      -1.39448101      -3.35187017      -0.20154447       0.00000000
Si      -3.12328889       0.12307421      -1.95334028       0.00000000
Si       1.40965515       2.99727855       1.73316448       0.00000000
Si      -0.83557926      -0.66748764       3.65042175       0.00000000
Si       2.25724014       1.11389391       2.86457526       0.00000000
