10
Lattice="16.28999089631971 0.0 0.0 0.0 16.28999089631971 0.0 0.0 0.0 34.69518985606464" Properties=species:S:1:pos:R:3:initial_magmoms:R:1 pbc="T T T"
Si       1.34311050       1.35438318      -1.38489397       0.00000000
Si      -1.36787130      -1.36850661      -1.37282004       0.00000000
Si      -1.44295191       1.19762451       1.49192869       0.00000000
Si       1.88867889      -0.83526975       1.26876911       0.00000000
Si      -2.24782452      -0.58139010       2.77457588       0.00000000
Si       2.70226665       2.68306074      -0.01831907       0.00000000
Si      -2.72044629       2.67846696      -0.01755578       0.00000000
Si       2.70764235      -2.70602964      -0.01238619       0.00000000
Si      -2.72618037      -2.70821250       0.01075551       0.00000000
Si       2.70588303      -0.01166364      -2.73609890       0.00000000
