10
Lattice="16.28999089631971 0.0 0.0 0.0 16.28999089631971 0.0 0.0 0.0 34.69518985606464" Properties=species:S:1:pos:R:3:initial_magmoms:R:1 pbc="T T T"
Si      -1.58817726      -1.54026837       0.75288604       0.00000000
Si      -0.64980810       1.80294462       1.35748476       0.00000000
Si       2.07370071      -0.81303390       0.99665458       0.00000000
Si      -1.19922093       0.72861912      -1.99972778       0.00000000
Si      -1.25178876      -1.61523495      -2.64512806       0.00000000
Si      -3.47235197      -0.25215291       0.09169944       0.00000000
Si      -1.19123883      -3.18844170      -0.87126609       0.00000000
Si      -0.04821840       3.60745308      -0.02043548       0.00000000
Si       1.36560699      -2.93351949       1.82545374       0.00000000
Si      -0.67986315      -2.31575382       2.86349970       0.00000000
