10
Lattice="16.28999089631971 0.0 0.0 0.0 16.28999089631971 0.0 0.0 0.0 34.69518985606464" Properties=species:S:1:pos:R:3:initial_magmoms:R:1 pbc="T T T"
Si       2.10787713       0.18049320      -1.09702782       0.00000000
Si      -0.70809372      -2.12048559       0.82879916       0.00000000
Si      -2.07370071       0.81303390      -0.99665458       0.00000000
Si       0.38015973       1.78067619       1.82427410       0.00000000
Si       1.17607284       0.93516003      -3.08346733       0.00000000
Si      -2.75356386      -1.50271992       1.86684512       0.00000000
Si       1.49866371       3.39727950       0.40496248       0.00000000
Si      -3.66187797      -0.72723447      -0.24376854       0.00000000
Si      -1.21995810      -3.39498261      -1.16024249       0.00000000
Si      -2.72350881       2.61597852       0.36083018       0.00000000
