10
Lattice="16.28999089631971 0.0 0.0 0.0 16.28999089631971 0.0 0.0 0.0 34.69518985606464" Properties=species:S:1:pos:R:3:initial_magmoms:R:1 pbc="T T T"
Si       0.55759041       2.27440980      -0.25594656       0.00000000
Si       0.85010994      -1.56380742      -1.56430290       0.00000000
Si       0.78952743      -0.54812592       2.18656148       0.00000000
Si      -2.39598207      -0.17461251       0.27287782       0.00000000
Si      -1.02421746       3.09325923       1.29132099       0.00000000
Si       0.18753048      -3.59401383      -0.48299201       0.00000000
Si       2.45276901       2.52851751       1.07902101       0.00000000
Si       1.52200728       1.52769249       2.98923514       0.00000000
Si      -2.61566901      -1.94393457       1.82642521       0.00000000
Si      -3.06646218       2.08541322       0.61885845       0.00000000
