10
Lattice="16.28999089631971 0.0 0.0 0.0 16.28999089631971 0.0 0.0 0.0 34.69518985606464" Properties=species:S:1:pos:R:3:initial_magmoms:R:1 pbc="T T T"
Si       2.28362994      -0.58080366      -0.16431651       0.00000000
Si      -0.85010994       1.56380742       1.56430290       0.00000000
Si      -0.66257946      -2.03020641       1.08131089       0.00000000
Si      -0.26865468       0.90241713      -2.26018471       0.00000000
Si      -0.27670194      -3.57979266      -0.64952901       0.00000000
Si       2.08614627      -2.93654943      -0.74813280       0.00000000
Si       3.11512041       0.26265996       1.97065319       0.00000000
Si      -2.66885586       1.62307044      -2.07827773       0.00000000
Si      -0.06058251       1.01568150       3.75086438       0.00000000
Si      -3.24609201       1.38919491       1.83718072       0.00000000
