10
Lattice="16.28999089631971 0.0 0.0 0.0 16.28999089631971 0.0 0.0 0.0 34.69518985606464" Properties=species:S:1:pos:R:3:initial_magmoms:R:1 pbc="T T T"
Si       0.59256504      -2.15939818       0.54672711       0.00000000
Si       1.32511005       1.76074863       0.74622456       0.00000000
Si      -1.76770935      -0.02063291       1.53207105       0.00000000
Si      -0.93213009       0.64685472      -2.11835070       0.00000000
Si      -1.53415962       2.77664190      -1.27050387       0.00000000
Si      -2.94998705       1.69716876       0.41294238       0.00000000
Si      -1.44967968      -3.16724419      -0.12573544       0.00000000
Si       3.37284450       1.31469585      -0.35847090       0.00000000
Si       0.47752506       3.64413327      -0.38518621       0.00000000
Si       2.17437291      -2.97824761      -1.00054044       0.00000000
