10
Lattice="16.28999089631971 0.0 0.0 0.0 16.28999089631971 0.0 0.0 0.0 34.69518985606464" Properties=species:S:1:pos:R:3:initial_magmoms:R:1 pbc="T T T"
Si       1.89517860       0.25410771       1.33496757       0.00000000
Si      -0.55759041      -2.27440980       0.25594656       0.00000000
Si      -1.58180787       0.81884943       1.54726755       0.00000000
Si       0.45856350       1.20130605      -1.99861753       0.00000000
Si       0.96441687      -0.74671731       3.24518170       0.00000000
Si      -3.62405259      -0.18899658       0.87480501       0.00000000
Si       0.23193702      -2.82253572       2.44250804       0.00000000
Si      -2.17437291       2.97824761       1.00054044       0.00000000
Si       2.34761706       2.59250660       1.66127601       0.00000000
Si      -2.95357248      -2.44902231       0.52882438       0.00000000
