10
Lattice="16.28999089631971 0.0 0.0 0.0 16.28999089631971 0.0 0.0 0.0 34.69518985606464" Properties=species:S:1:pos:R:3:initial_magmoms:R:1 pbc="T T T"
Si      -1.58760711       0.29289420      -1.72636422       0.00000000
Si      -0.45856350      -1.20130605       1.99861753       0.00000000
Si       1.94054625      -0.85892283      -1.10119125       0.00000000
Si       0.86206680       2.19052512       0.42543266       0.00000000
Si       0.98578935      -2.38759272      -2.50034495       0.00000000
Si      -0.18279009      -0.55890990      -3.58158645       0.00000000
Si      -2.19286206       2.58576287      -1.40578049       0.00000000
Si       3.09246102       2.04848446      -0.45804615       0.00000000
Si       1.43661510      -0.94719834       3.33358509       0.00000000
Si      -0.23126913       3.84918758      -0.88257673       0.00000000
