10
Lattice="16.28999089631971 0.0 0.0 0.0 16.28999089631971 0.0 0.0 0.0 34.69518985606464" Properties=species:S:1:pos:R:3:initial_magmoms:R:1 pbc="T T T"
Si       1.57936437      -0.01252701      -1.74038109       0.00000000
Si      -1.87313823       1.11637881      -0.93267661       0.00000000
Si       0.64961262       1.34620301       1.87395764       0.00000000
Si      -0.85165749      -2.11898691       0.75888831       0.00000000
Si      -3.03205933      -1.50234525       1.02777618       0.00000000
Si       3.37015665      -1.22531751      -0.73484453       0.00000000
Si      -1.46997702       2.04178275       2.70282619       0.00000000
Si      -3.49765522      -0.63651546      -1.10903236       0.00000000
Si      -2.26709559       2.89358360       0.64460229       0.00000000
Si       0.74745036      -1.34421822      -3.63095773       0.00000000
