10
Lattice="16.28999089631971 0.0 0.0 0.0 16.28999089631971 0.0 0.0 0.0 34.69518985606464" Properties=species:S:1:pos:R:3:initial_magmoms:R:1 pbc="T T T"
Si      -1.75251078      -0.85944411       1.44417910       0.00000000
Si       0.97941996       1.72896914       1.43344094       0.00000000
Si       0.31236075       0.04223997      -2.46394967       0.00000000
Si       1.66003245      -1.97407107       0.29335012       0.00000000
Si       2.49220710       1.16505170      -2.36683778       0.00000000
Si      -0.39697101      -2.17753317       2.95379888       0.00000000
Si       0.50816655      -2.40275871      -2.88702306       0.00000000
Si       2.32595136       0.53755371       2.97324555       0.00000000
Si       2.84975631       2.66358509       0.20005258       0.00000000
Si       3.44838123      -1.00023858       1.61488647       0.00000000
