10
Lattice="16.28999089631971 0.0 0.0 0.0 16.28999089631971 0.0 0.0 0.0 34.69518985606464" Properties=species:S:1:pos:R:3:initial_magmoms:R:1 pbc="T T T"
Si      -0.39693843       1.64817333       1.62415214       0.00000000
Si      -1.70295660      -1.61986131       0.26177535       0.00000000
Si      -0.06054993       1.57320675      -1.77386196       0.00000000
Si       2.04498144      -1.01957481       0.70767818       0.00000000
Si      -0.90583803      -2.47166215       2.31999925       0.00000000
Si       1.19123883       3.18844170       0.87126609       0.00000000
Si      -2.21096351       1.23610149      -2.61195944       0.00000000
Si       1.21375161      -3.16724189       1.49113070       0.00000000
Si       2.55684582       0.25492221       2.69671983       0.00000000
Si      -3.43184541       1.55774754      -0.59606369       0.00000000
