10
Lattice="16.28999089631971 0.0 0.0 0.0 16.28999089631971 0.0 0.0 0.0 34.69518985606464" Properties=species:S:1:pos:R:3:initial_magmoms:R:1 pbc="T T T"
Si       1.33281522       1.35368716       1.34700680       0.00000000
Si      -1.35786924       1.35117850      -1.35932360       0.00000000
Si       1.35482301      -1.36432445      -1.35946238       0.00000000
Si      -1.36754550      -1.38636482       1.38884923       0.00000000
Si      -0.29416482       2.42783184       2.70185472       0.00000000
Si       2.41039872      -0.09860774       2.77499223       0.00000000
Si       0.00083079       2.71104978      -2.71712062       0.00000000
Si       2.71492398       2.71473132      -0.00006939       0.00000000
Si      -2.71376739      -2.71663880      -0.00117964       0.00000000
Si      -2.71704168       2.71344441       0.00346952       0.00000000
