10
Lattice="16.28999089631971 0.0 0.0 0.0 16.28999089631971 0.0 0.0 0.0 34.69518985606464" Properties=species:S:1:pos:R:3:initial_magmoms:R:1 pbc="T T T"
Si      -0.06854832      -2.42558100      -0.31468555       0.00000000
Si       0.28900089      -0.92704761       2.25220481       0.00000000
Si      -2.23542783       0.90730413      -0.97920289       0.00000000
Si       2.63735100       1.00429479      -1.18355767       0.00000000
Si       1.17620316      -2.43767795      -2.31729303       0.00000000
Si       2.32559298       2.76012873       0.20831004       0.00000000
Si      -1.52733411       3.02778972      -1.80800205       0.00000000
Si       1.13904567       0.94550418       3.57599501       0.00000000
Si      -2.74729221      -0.36719289      -2.96824454       0.00000000
Si       1.15023690      -0.66854160      -3.93096721       0.00000000
