10
Lattice="16.28999089631971 0.0 0.0 0.0 16.28999089631971 0.0 0.0 0.0 34.69518985606464" Properties=species:S:1:pos:R:3:initial_magmoms:R:1 pbc="T T T"
Si       1.34679204      -1.35208629      -1.35411932       0.00000000
Si      -1.36594908      -1.33428132       1.37125876       0.00000000
Si       1.32892191       1.35856971       1.38909209       0.00000000
Si      -1.36770840       1.36008468      -1.35245395       0.00000000
Si      -2.18491254       0.53647857       2.65241405       0.00000000
Si      -0.52821954       2.30772285       2.73138035       0.00000000
Si       2.49499269      -0.20491191       2.73259468       0.00000000
Si       2.70635544      -2.70505224       0.00607166       0.00000000
Si       2.70624141       0.00408879      -2.71059792       0.00000000
Si      -0.00773775      -2.70873378      -2.71097956       0.00000000
