10
Lattice="16.28999089631971 0.0 0.0 0.0 16.28999089631971 0.0 0.0 0.0 34.69518985606464" Properties=species:S:1:pos:R:3:initial_magmoms:R:1 pbc="T T T"
Si      -1.76256171       1.63501101      -0.01752108       0.00000000
Si       2.02386960       1.12337469      -0.83393405       0.00000000
Si       0.57528135      -0.80767449       2.26337667       0.00000000
Si      -0.60934374      -1.80898821      -1.58414856       0.00000000
Si       1.74777039       0.33783831      -3.03583081       0.00000000
Si       1.44137178      -1.99370052      -2.77284112       0.00000000
Si      -0.75515553       3.67523577       0.63946740       0.00000000
Si       3.79475550      -0.32316102      -0.31763464       0.00000000
Si      -3.42528201       1.05314850       1.59358566       0.00000000
Si       3.08928447      -2.44679058       0.64661461       0.00000000
