10
Lattice="16.28999089631971 0.0 0.0 0.0 16.28999089631971 0.0 0.0 0.0 34.69518985606464" Properties=species:S:1:pos:R:3:initial_magmoms:R:1 pbc="T T T"
Si      -1.23577569       1.70613315       0.96789225       0.00000000
Si       1.08530496      -1.27539297       1.72057012       0.00000000
Si       1.75715343       1.51088121      -0.73435880       0.00000000
Si      -1.98070110      -1.28342394      -0.79240388       0.00000000
Si       1.23877305      -0.79891047      -3.37341519       0.00000000
Si      -3.19824828       0.76183443       1.88644792       0.00000000
Si      -1.18255626      -3.51179820      -0.84770805       0.00000000
Si       0.53330202      -2.92254003      -2.40916594       0.00000000
Si       3.07305963      -0.08141742       2.31843797       0.00000000
Si      -0.73800216      -1.76480973       3.35631046       0.00000000
