10
Lattice="16.28999089631971 0.0 0.0 0.0 16.28999089631971 0.0 0.0 0.0 34.69518985606464" Properties=species:S:1:pos:R:3:initial_magmoms:R:1 pbc="T T T"
Si      -1.71448992      -0.93924882       1.40086907       0.00000000
Si      -1.11399165       0.23855076      -2.12476931       0.00000000
Si       1.03206924       1.73371212       1.37076404       0.00000000
Si       2.35877571      -1.80978642      -1.93273133       0.00000000
Si      -0.20496078      -2.19841695       2.85382117       0.00000000
Si      -3.21390297       1.03052169      -1.36595039       0.00000000
Si       2.50621650       0.51494319       2.86087817       0.00000000
Si       2.92819266      -2.61508257       0.17388611       0.00000000
Si       0.00451233       1.85515407      -3.54408093       0.00000000
Si       2.77044030       2.87424018       0.27442943       0.00000000
