10
Lattice="16.28999089631971 0.0 0.0 0.0 16.28999089631971 0.0 0.0 0.0 34.69518985606464" Properties=species:S:1:pos:R:3:initial_magmoms:R:1 pbc="T T T"
Si       1.23632955      -1.31448897      -1.44836886       0.00000000
Si      -1.33218154      -1.36516716       1.34720804       0.00000000
Si       1.37927430       1.34925183       1.35053878       0.00000000
Si      -1.51119398       1.12783815      -1.45929438       0.00000000
Si      -0.64936827      -2.29884480      -2.54476627       0.00000000
Si       1.91627415       0.53149383      -2.93527164       0.00000000
Si       0.22385718       2.25960219      -2.77685332       0.00000000
Si      -2.45230963      -0.72102798      -2.72991070       0.00000000
Si      -2.69310082      -0.00900837       2.70778067       0.00000000
Si      -2.70880186       2.70182682      -0.03978153       0.00000000
