10
Lattice="16.28999089631971 0.0 0.0 0.0 16.28999089631971 0.0 0.0 0.0 34.69518985606464" Properties=species:S:1:pos:R:3:initial_magmoms:R:1 pbc="T T T"
Si       1.35019665      -1.36042677      -1.36067672       0.00000000
Si       1.34170956       1.33789770       1.39651687       0.00000000
Si      -1.36741518       1.35210258      -1.36199513       0.00000000
Si      -1.36783872      -1.38280923       1.35606225       0.00000000
Si       2.71448415       2.71073745       0.00045104       0.00000000
Si       2.71090035      -0.00136836      -2.71958398       0.00000000
Si      -0.00469152       2.71280628      -2.71934111       0.00000000
Si       2.71551042      -2.71906164      -0.00079799       0.00000000
Si      -2.71884987       2.71595025      -0.00430221       0.00000000
Si      -0.00461007      -2.71761183      -2.71968806       0.00000000
