10
Lattice="16.28999089631971 0.0 0.0 0.0 16.28999089631971 0.0 0.0 0.0 34.69518985606464" Properties=species:S:1:pos:R:3:initial_magmoms:R:1 pbc="T T T"
Si      -2.11370895       1.00497897      -0.23041088       0.00000000
Si       1.18604232       0.56637072       1.97367167       0.00000000
Si       1.38733785       0.96000228      -1.77254355       0.00000000
Si      -0.75044772      -2.34639531       0.04971823       0.00000000
Si      -2.94519942       0.16151535      -2.36538059       0.00000000
Si       3.30758676       1.49309253       1.26821398       0.00000000
Si      -3.52947285       0.20546577       1.52311969       0.00000000
Si       1.53881856      -1.48313934       3.20507404       0.00000000
Si       0.44575956       2.64049497       2.77554735       0.00000000
Si      -1.83892923       3.40957845      -0.30840571       0.00000000
