10
Lattice="16.28999089631971 0.0 0.0 0.0 16.28999089631971 0.0 0.0 0.0 34.69518985606464" Properties=species:S:1:pos:R:3:initial_magmoms:R:1 pbc="T T T"
Si       0.85395438       1.02747546      -1.92364118       0.00000000
Si      -1.81444536       1.34100909       0.71048849       0.00000000
Si      -1.20523194      -1.87577721      -0.79150181       0.00000000
Si       1.95960555      -0.96607845       1.07072885       0.00000000
Si       2.01624588       0.90432306       2.43386893       0.00000000
Si       0.53981802      -2.32393140       2.32183810       0.00000000
Si       0.10518453       2.57228874       2.27402810       0.00000000
Si      -2.93294934      -0.27559422       2.12980011       0.00000000
Si      -2.13703623      -1.12111038      -2.77794132       0.00000000
Si      -0.17456364      -0.17681166      -3.69649698       0.00000000
