10
Lattice="16.28999089631971 0.0 0.0 0.0 16.28999089631971 0.0 0.0 0.0 34.69518985606464" Properties=species:S:1:pos:R:3:initial_magmoms:R:1 pbc="T T T"
Si      -0.95475690      -1.52866989      -1.39915370       0.00000000
Si       1.66702086      -0.90446967       1.43686740       0.00000000
Si      -1.94054625       0.85892283       1.10119125       0.00000000
Si       1.27151595       1.72087560      -1.37604669       0.00000000
Si       1.15191477       2.90740729       0.64314509       0.00000000
Si      -2.12333634       0.30001293      -2.48039520       0.00000000
Si       2.38026222       1.32242220       1.83315608       0.00000000
Si       1.00370835      -2.46604536      -2.35507611       0.00000000
Si      -1.07847945       3.04944795       1.52662390       0.00000000
Si      -3.52815336       1.15181703      -0.62517298       0.00000000
