10
Lattice="16.28999089631971 0.0 0.0 0.0 16.28999089631971 0.0 0.0 0.0 34.69518985606464" Properties=species:S:1:pos:R:3:initial_magmoms:R:1 pbc="T T T"
Si      -0.99839781      -1.46428041       1.55531684       0.00000000
Si       2.35573341       0.71531019       0.05707362       0.00000000
Si       0.51333048      -1.41149592      -2.01482019       0.00000000
Si       1.91231568      -1.58159284       0.75309421       0.00000000
Si      -2.55594987       0.20531916      -1.18994159       0.00000000
Si      -1.65644865       2.34870849      -0.74719603       0.00000000
Si      -3.13046559      -0.35140788       1.04883618       0.00000000
Si      -0.39648231      -0.44289252       3.49096256       0.00000000
Si       1.30696299      -3.24692999      -0.79972457       0.00000000
Si      -0.47387610       1.95659190       3.27377055       0.00000000
