10
Lattice="16.28999089631971 0.0 0.0 0.0 16.28999089631971 0.0 0.0 0.0 34.69518985606464" Properties=species:S:1:pos:R:3:initial_magmoms:R:1 pbc="T T T"
Si       1.34749251       1.35576783       1.38010603       0.00000000
Si      -1.38637674       1.31105178      -1.39514641       0.00000000
Si      -1.37023335      -1.35883035       1.37916926       0.00000000
Si       1.10949561      -1.52265888      -1.51262785       0.00000000
Si      -2.32376850      -0.42622785      -2.68497974       0.00000000
Si       2.68710493       2.70977634      -0.00948567       0.00000000
Si       2.68053579      -2.73238686      -0.00930872       0.00000000
Si       2.70280596      -0.00105885       2.73807652       0.00000000
Si      -2.74574466       2.70379791       0.00201232       0.00000000
Si      -0.01205460       2.71306692       2.73797244       0.00000000
