10
Lattice="16.28999089631971 0.0 0.0 0.0 16.28999089631971 0.0 0.0 0.0 34.69518985606464" Properties=species:S:1:pos:R:3:initial_magmoms:R:1 pbc="T T T"
Si      -0.41767560       0.68719365       2.19367399       0.00000000
Si      -0.06261876      -2.34680256       0.25726498       0.00000000
Si       2.22751808       0.42498981      -0.67693823       0.00000000
Si      -1.91032830       0.49622598      -1.36692185       0.00000000
Si       2.28917573      -1.12137102      -2.46703755       0.00000000
Si      -1.72429650      -1.12098006       2.98364921       0.00000000
Si      -0.97783983       1.32585939      -3.27970343       0.00000000
Si       0.03684798      -2.62267371       2.66264914       0.00000000
Si       1.53711367      -3.21330024      -1.29465173       0.00000000
Si      -2.29399038      -3.07835388       0.05880838       0.00000000
