10
Lattice="16.28999089631971 0.0 0.0 0.0 16.28999089631971 0.0 0.0 0.0 34.69518985606464" Properties=species:S:1:pos:R:3:initial_magmoms:R:1 pbc="T T T"
Si       1.32644583       2.03278023       0.34872155       0.00000000
Si      -2.23642152      -0.25063794       1.06545518       0.00000000
Si       0.94278375      -1.54179963       1.77445178       0.00000000
Si      -0.23978880      -1.14968304      -2.24651480       0.00000000
Si      -2.86223445       0.19093509      -1.52704024       0.00000000
Si       1.67249430       0.04934241      -3.05241512       0.00000000
Si      -1.82847105       2.00674881      -2.60064880       0.00000000
Si       3.17415537      -0.81024831       1.97290838       0.00000000
Si      -1.96032231       0.53489844       3.26735194       0.00000000
Si      -2.54282013      -2.58217677       1.32844487       0.00000000
