10
Lattice="16.28999089631971 0.0 0.0 0.0 16.28999089631971 0.0 0.0 0.0 34.69518985606464" Properties=species:S:1:pos:R:3:initial_magmoms:R:1 pbc="T T T"
Si      -1.18353366       0.98258022       1.72341513       0.00000000
Si       1.76114448      -1.50169365      -0.32100008       0.00000000
Si      -1.70191404      -1.32721146      -0.91564127       0.00000000
Si       1.30662090       1.80817371      -0.78997522       0.00000000
Si       1.66167774      -1.22582250      -2.72638424       0.00000000
Si      -1.53630990       3.03209028       0.49201276       0.00000000
Si      -0.56969388      -1.95737382      -2.92484083       0.00000000
Si       3.07761498       1.67251059       0.76138637       0.00000000
Si       1.72429650       1.12098006      -2.98364921       0.00000000
Si      -3.47279994       0.11932425      -1.43194068       0.00000000
