10
Lattice="16.28999089631971 0.0 0.0 0.0 16.28999089631971 0.0 0.0 0.0 34.69518985606464" Properties=species:S:1:pos:R:3:initial_magmoms:R:1 pbc="T T T"
Si       1.93789098       0.84794337       1.19323764       0.00000000
Si      -1.08537827      -1.85064174       1.16038127       0.00000000
Si      -1.24349063       1.42692255      -1.57339304       0.00000000
Si       1.45953513      -1.27887903      -1.57058273       0.00000000
Si       1.00996371      -3.46066389       1.15646071       0.00000000
Si       2.74276359       2.62695798      -0.08940955       0.00000000
Si      -2.11569470       3.20803857      -0.21191834       0.00000000
Si       2.89763262      -2.62083294      -0.17722313       0.00000000
Si      -2.61377075       0.06615369      -2.95405420       0.00000000
Si      -2.74013180      -2.83907007      -0.27770045       0.00000000
