10
Lattice="16.28999089631971 0.0 0.0 0.0 16.28999089631971 0.0 0.0 0.0 34.69518985606464" Properties=species:S:1:pos:R:3:initial_magmoms:R:1 pbc="T T T"
Si      -0.68668866      -1.94022045       1.09337546       0.00000000
Si      -0.71706951       0.35605053      -2.19104448       0.00000000
Si       1.96076214       0.86802894       1.06270142       0.00000000
Si      -1.78183278       1.81182267      -0.09591456       0.00000000
Si      -2.04605658      -0.54747432       2.49053419       0.00000000
Si       1.24672257       1.37929059      -2.83811014       0.00000000
Si       0.68761719       2.20338540       2.50399246       0.00000000
Si      -3.52020384       0.67129461       1.00042005       0.00000000
Si      -0.65528154       3.59823294       1.08236667       0.00000000
Si      -0.77370984      -1.51435098      -3.55418456       0.00000000
