10
Lattice="16.28999089631971 0.0 0.0 0.0 16.28999089631971 0.0 0.0 0.0 34.69518985606464" Properties=species:S:1:pos:R:3:initial_magmoms:R:1 pbc="T T T"
Si       1.27314495      -1.33535646      -1.44129103       0.00000000
Si       1.35860229       1.33304328       1.36702941       0.00000000
Si      -1.35887922      -1.38349341       1.36026384       0.00000000
Si      -1.34289873       1.39484754      -1.42162579       0.00000000
Si      -0.68761719      -2.20338540      -2.50399246       0.00000000
Si      -2.46944997      -0.39156273      -2.59990702       0.00000000
Si       2.70224877       2.67470397      -0.03060811       0.00000000
Si      -0.00024435       2.68741017       2.72205081       0.00000000
Si      -2.72660391       2.68780113      -0.00383035       0.00000000
Si       2.71247229      -0.02583594       2.72323044       0.00000000
