10
Lattice="16.28999089631971 0.0 0.0 0.0 16.28999089631971 0.0 0.0 0.0 34.69518985606464" Properties=species:S:1:pos:R:3:initial_magmoms:R:1 pbc="T T T"
Si      -1.35801585      -1.35609363       1.35675616       0.00000000
Si       1.35767376       1.35940050       1.35696433       0.00000000
Si       1.35954711      -1.35729909      -1.35786640       0.00000000
Si      -1.35889551       1.35809730      -1.36223800       0.00000000
Si       2.71245600       2.71575477       0.00072860       0.00000000
Si       2.71486056      -2.71412577       0.00010409       0.00000000
Si       2.71452553       0.00182448       2.71486543       0.00000000
Si      -2.71458189       0.00087966       2.71483073       0.00000000
Si      -0.00024435      -2.71503801       2.71465726       0.00000000
Si      -2.71645524       2.71494027       0.00020817       0.00000000
