10
Lattice="16.28999089631971 0.0 0.0 0.0 16.28999089631971 0.0 0.0 0.0 34.69518985606464" Properties=species:S:1:pos:R:3:initial_magmoms:R:1 pbc="T T T"
Si      -1.51925771       1.56636495       0.99391366       0.00000000
Si       0.36183886       0.91556316      -2.28603264       0.00000000
Si      -2.10569771      -1.24670628      -0.49444143       0.00000000
Si       1.74775785      -0.88086546       1.80657955       0.00000000
Si      -3.27088883       0.97863804      -0.58270604       0.00000000
Si      -2.45174618       0.73673154       2.90669524       0.00000000
Si       1.23404292      -0.86555286      -3.64750735       0.00000000
Si       2.47753356      -2.29247541      -2.07411430       0.00000000
Si       1.68610020       0.66549537       3.59667887       0.00000000
Si      -1.15248836       3.82046112       1.27005283       0.00000000
