10
Lattice="16.28999089631971 0.0 0.0 0.0 16.28999089631971 0.0 0.0 0.0 34.69518985606464" Properties=species:S:1:pos:R:3:initial_magmoms:R:1 pbc="T T T"
Si      -0.93248847      -0.82963341       1.91278158       0.00000000
Si       0.36676935       2.25409617       0.27613917       0.00000000
Si       1.51925771      -1.56636495      -0.99391366       0.00000000
Si      -1.75163112      -0.58772691      -1.57661970       0.00000000
Si      -0.58644000      -2.81307123      -1.48835509       0.00000000
Si      -0.08767278       2.68183899      -2.03660878       0.00000000
Si      -1.72375893       3.19279113      -0.09176883       0.00000000
Si       0.97783983      -1.32585939       3.27970343       0.00000000
Si      -1.47911571       1.20627450      -3.18054453       0.00000000
Si      -2.08147104       0.97888239       3.00915019       0.00000000
