10
Lattice="16.28999089631971 0.0 0.0 0.0 16.28999089631971 0.0 0.0 0.0 34.69518985606464" Properties=species:S:1:pos:R:3:initial_magmoms:R:1 pbc="T T T"
Si      -0.36676935      -2.25409617      -0.27613917       0.00000000
Si      -2.09052828       0.93869496      -0.36790800       0.00000000
Si      -0.45444213       0.42774282      -2.31274795       0.00000000
Si       1.12679936       0.55931715       2.05759938       0.00000000
Si      -0.73577043       0.25642089       3.59879527       0.00000000
Si      -1.29925782      -3.08372958       1.63664241       0.00000000
Si      -1.89149706       3.26199105      -0.25601595       0.00000000
Si       3.08785814      -0.80112591       2.06096482       0.00000000
Si      -2.44824039      -1.27521378       2.73301102       0.00000000
Si      -3.72623976       0.05699871       1.15972206       0.00000000
