10
Lattice="16.28999089631971 0.0 0.0 0.0 16.28999089631971 0.0 0.0 0.0 34.69518985606464" Properties=species:S:1:pos:R:3:initial_magmoms:R:1 pbc="T T T"
Si      -1.39144293      -1.47556449      -1.14393574       0.00000000
Si       0.45444213      -0.42774282       2.31274795       0.00000000
Si       1.43671284       1.59840738      -1.13765591       0.00000000
Si      -1.63608615       0.51095214       1.94483995       0.00000000
Si       0.08767278      -2.68183899       2.03660878       0.00000000
Si       0.13605408      -2.41184853      -2.62354764       0.00000000
Si      -2.60799642       0.29242179      -2.59062188       0.00000000
Si      -1.66395834      -3.26956590       0.45998908       0.00000000
Si      -1.43705493       2.83424823       2.05673200       0.00000000
Si       2.82591819       0.29610333      -2.61605347       0.00000000
