10
Lattice="16.28999089631971 0.0 0.0 0.0 16.28999089631971 0.0 0.0 0.0 34.69518985606464" Properties=species:S:1:pos:R:3:initial_magmoms:R:1 pbc="T T T"
Si      -0.74028276       2.07412425       0.80187568       0.00000000
Si      -1.18604232      -0.56637072      -1.97367167       0.00000000
Si       0.35277624      -2.04951006       1.23140237       0.00000000
Si       2.12154444       0.92672181      -0.70545769       0.00000000
Si       2.84293080      -1.22391657      -1.28198798       0.00000000
Si       1.53630990      -3.03209028      -0.49201276       0.00000000
Si       1.00067841       2.83760397       2.22337309       0.00000000
Si       0.20129553       0.39363156      -3.74621522       0.00000000
Si      -0.97254558       3.45419676      -1.16961020       0.00000000
Si       3.04017012       1.77793947       1.41105416       0.00000000
