10
Lattice="16.28999089631971 0.0 0.0 0.0 16.28999089631971 0.0 0.0 0.0 34.69518985606464" Properties=species:S:1:pos:R:3:initial_magmoms:R:1 pbc="T T T"
Si      -2.29140027       0.09187560       0.34997058       0.00000000
Si       0.39465783      -0.65625894      -2.25223951       0.00000000
Si       0.07871328       2.29255916      -0.65230463       0.00000000
Si       0.59644206      -1.49724648       1.93751927       0.00000000
Si       0.68062878       3.31394705       1.28334109       0.00000000
Si       2.47197492       1.80249406       2.00049107       0.00000000
Si      -3.00464163      -2.13501627      -0.04631810       0.00000000
Si      -2.55347379       1.13138678       2.41457839       0.00000000
Si       0.19562661      -2.97955503      -2.36413156       0.00000000
Si       2.38407408       0.50990958      -3.00734604       0.00000000
