10
Lattice="16.28999089631971 0.0 0.0 0.0 16.28999089631971 0.0 0.0 0.0 34.69518985606464" Properties=species:S:1:pos:R:3:initial_magmoms:R:1 pbc="T T T"
Si      -0.90073926      -1.06359039      -1.92929650       0.00000000
Si      -0.50508774      -0.62848449       2.24117174       0.00000000
Si       2.22210261      -0.85374261       0.15963266       0.00000000
Si      -0.13385493       2.43309069      -0.13805224       0.00000000
Si       2.14408980      -0.62661114       2.62077202       0.00000000
Si      -3.02689377      -0.12743667       1.71036973       0.00000000
Si       0.19401390      -2.89603620       2.11498526       0.00000000
Si       3.45799789       1.01892321      -0.58926343       0.00000000
Si       0.89215443       2.94588360      -2.29394315       0.00000000
Si      -0.59618142      -3.39851754      -1.71852310       0.00000000
