10
Lattice="16.28999089631971 0.0 0.0 0.0 16.28999089631971 0.0 0.0 0.0 34.69518985606464" Properties=species:S:1:pos:R:3:initial_magmoms:R:1 pbc="T T T"
Si      -1.84556482      -0.83795760      -1.17179600       0.00000000
Si       2.01808828      -0.05115060      -1.28046139       0.00000000
Si      -0.52909431       2.33624664      -0.08940955       0.00000000
Si      -0.10762966      -1.17719685       2.09701314       0.00000000
Si      -2.10126895      -2.95521777      -0.24286646       0.00000000
Si       2.04278392      -0.84009159       2.93511062       0.00000000
Si       1.84062502       1.80830403      -2.69325031       0.00000000
Si      -2.30008840       2.47190976      -1.64077114       0.00000000
Si      -3.60670930       0.66373605      -0.85079592       0.00000000
Si       3.76133005       0.71283411       0.14478311       0.00000000
