10
Lattice="16.28999089631971 0.0 0.0 0.0 16.28999089631971 0.0 0.0 0.0 34.69518985606464" Properties=species:S:1:pos:R:3:initial_magmoms:R:1 pbc="T T T"
Si      -1.29599718      -0.23990283       1.92180234       0.00000000
Si       1.88417470      -1.28811546       0.66118660       0.00000000
Si      -1.15073228      -1.37854125      -1.55902923       0.00000000
Si      -0.74921294       3.08825820       0.05880838       0.00000000
Si       2.27313104       0.98077203      -2.09142721       0.00000000
Si      -3.31845123      -0.10529856       0.60935196       0.00000000
Si       0.53257712       2.82566340      -1.95837109       0.00000000
Si       3.47235197       0.25215291      -0.09169944       0.00000000
Si      -2.95080222       2.21671062       0.36894886       0.00000000
Si       2.82254387       2.05509753       1.26578532       0.00000000
