10
Lattice="16.28999089631971 0.0 0.0 0.0 16.28999089631971 0.0 0.0 0.0 34.69518985606464" Properties=species:S:1:pos:R:3:initial_magmoms:R:1 pbc="T T T"
Si       1.35573851       1.35663120      -1.35668677       0.00000000
Si       1.35712316      -1.35747285       1.35769293       0.00000000
Si      -1.35798441       1.35769005       1.35751945       0.00000000
Si      -1.36013446      -1.35863575      -1.35772762       0.00000000
Si       2.71152263      -0.00362452       2.71483073       0.00000000
Si      -2.71351068       0.00410182      -2.71545525       0.00000000
Si      -2.71492791       2.71454931      -0.00017348       0.00000000
Si       2.71450370       2.71511946       0.00027756       0.00000000
Si      -2.71473243      -2.71512665      -0.00010409       0.00000000
Si       2.71491095      -2.71512665      -0.00003470       0.00000000
