10
Lattice="16.28999089631971 0.0 0.0 0.0 16.28999089631971 0.0 0.0 0.0 34.69518985606464" Properties=species:S:1:pos:R:3:initial_magmoms:R:1 pbc="T T T"
Si       1.35665891       1.35509994       1.35960116       0.00000000
Si      -1.35685177       1.35757602      -1.35790110       0.00000000
Si       1.35848991      -1.35808101      -1.35762354       0.00000000
Si      -1.35872512      -1.35972630       1.35765823       0.00000000
Si      -2.70898693      -0.00239463       2.71885538       0.00000000
Si      -0.00206953       2.71393029      -2.71413683       0.00000000
Si      -2.71359700       2.71529865       0.00006939       0.00000000
Si      -2.71452553      -0.00182448      -2.71486543       0.00000000
Si       2.71506898       2.71467963      -0.00024287       0.00000000
Si       2.71506898      -0.00084708      -2.71476134       0.00000000
