10
Lattice="16.28999089631971 0.0 0.0 0.0 16.28999089631971 0.0 0.0 0.0 34.69518985606464" Properties=species:S:1:pos:R:3:initial_magmoms:R:1 pbc="T T T"
Si      -1.34904006      -1.33810947      -1.36737289       0.00000000
Si      -1.74366531       0.90326421       1.28233493       0.00000000
Si       1.36169739       1.38406356      -1.36109306       0.00000000
Si       1.27749438      -1.48084245       1.50948447       0.00000000
Si       1.93745115       0.46317357       2.67572923       0.00000000
Si      -0.19727190       1.98539262       2.71687775       0.00000000
Si      -2.70875984      -2.68087788       0.02550098       0.00000000
Si       2.72044629      -2.67846696       0.01755578       0.00000000
Si      -0.00200367      -2.68446168      -2.72128404       0.00000000
Si      -2.71828298       0.02583594      -2.71687775       0.00000000
