10
Lattice="16.28999089631971 0.0 0.0 0.0 16.28999089631971 0.0 0.0 0.0 34.69518985606464" Properties=species:S:1:pos:R:3:initial_magmoms:R:1 pbc="T T T"
Si       0.82560131      -0.95408901      -2.04264575       0.00000000
Si      -1.98997274      -1.20174588       0.71211917       0.00000000
Si       1.70949345       0.05831820       1.76033083       0.00000000
Si      -0.74815346       2.18343015      -0.90096519       0.00000000
Si      -1.66677914       1.33221249      -3.01747704       0.00000000
Si      -0.94539278      -0.81842589      -3.59400734       0.00000000
Si       0.42770340       0.32091300       3.77751030       0.00000000
Si      -3.06407018       0.15312600       2.27142596       0.00000000
Si      -3.43554734      -1.64401938      -1.08061699       0.00000000
Si       1.35469562      -3.29033565      -1.95323619       0.00000000
