10
Lattice="16.28999089631971 0.0 0.0 0.0 16.28999089631971 0.0 0.0 0.0 34.69518985606464" Properties=species:S:1:pos:R:3:initial_magmoms:R:1 pbc="T T T"
Si       1.35089712      -1.36035346      -1.36119714       0.00000000
Si      -1.35897859       1.35760860      -1.36005220       0.00000000
Si      -1.35096717      -1.38858404       1.35967056       0.00000000
Si       1.35068535       1.37367054       1.38635117       0.00000000
Si       2.71116099      -2.70992396      -0.00326135       0.00000000
Si       2.70899442       2.71337643       0.00277562       0.00000000
Si      -2.71565447      -2.71381697      -0.00308787       0.00000000
Si       2.71160082       0.00086337      -2.71823086       0.00000000
Si      -0.00350235      -2.71420179      -2.71833495       0.00000000
Si      -0.00162900       2.71583622      -2.71868190       0.00000000
