10
Lattice="16.28999089631971 0.0 0.0 0.0 16.28999089631971 0.0 0.0 0.0 34.69518985606464" Properties=species:S:1:pos:R:3:initial_magmoms:R:1 pbc="T T T"
Si      -0.73565803       2.26954839       0.04274450       0.00000000
Si       0.87693142      -0.46222875       2.19415973       0.00000000
Si       1.38544007      -0.17265771      -1.98321286       0.00000000
Si      -1.30528040      -2.05923519      -0.23589273       0.00000000
Si       0.65577839      -3.41967825      -0.23252729       0.00000000
Si       1.39448101       3.35187017       0.20154447       0.00000000
Si       1.54741154      -2.72225448       1.84817910       0.00000000
Si       2.12464768      -2.48837895      -2.06727935       0.00000000
Si      -0.56094615       0.54056736       3.82837347       0.00000000
Si       2.91917614       0.54561726       2.86662227       0.00000000
