10
Lattice="16.28999089631971 0.0 0.0 0.0 16.28999089631971 0.0 0.0 0.0 34.64500226677339" Properties=species:S:1:pos:R:3:initial_magmoms:R:1 pbc="T T T"
Si       2.00859266       0.92492991       0.72335341       0.00000000
Si      -1.73539409      -0.91834875       1.26482045       0.00000000
Si       0.87412448      -2.02520538      -0.82784279       0.00000000
Si      -0.44582882       1.82207627      -1.56650930       0.00000000
Si      -2.71613354      -1.10433168      -1.04832371       0.00000000
Si       1.85401685      -0.89782335      -2.66364784       0.00000000
Si       3.14612336       0.61038630      -1.36872087       0.00000000
Si      -1.25946545       0.35460072       3.27544428       0.00000000
Si       0.15224975       0.51989535      -3.55049111       0.00000000
Si       2.50481864      -2.56627773       0.78270033       0.00000000
