10
Lattice="16.28999089631971 0.0 0.0 0.0 16.28999089631971 0.0 0.0 0.0 34.64500226677339" Properties=species:S:1:pos:R:3:initial_magmoms:R:1 pbc="T T T"
Si      -0.29506240      -0.18647163      -2.43758908       0.00000000
Si       0.48270365       1.79201403       1.63036007       0.00000000
Si      -2.37269456      -0.10912671       1.04998667       0.00000000
Si       0.60520608       2.47813973      -0.68683755       0.00000000
Si       0.22311761      -2.59760340       0.63064333       0.00000000
Si       2.04503031      -0.07802910      -2.77645203       0.00000000
Si      -1.39860143      -3.30499665      -1.03592079       0.00000000
Si      -3.24976445      -2.02253382      -0.06783495       0.00000000
Si       2.71116099       2.05300656      -1.86508009       0.00000000
Si      -0.76681836      -2.41028469      -3.09771532       0.00000000
