10
Lattice="16.28999089631971 0.0 0.0 0.0 16.28999089631971 0.0 0.0 0.0 34.64500226677339" Properties=species:S:1:pos:R:3:initial_magmoms:R:1 pbc="T T T"
Si       1.35545832      -1.35571896      -1.35714943       0.00000000
Si       1.35702216       1.35671265       1.35694156       0.00000000
Si      -1.35798327      -1.35856971       1.35742659       0.00000000
Si      -1.36039419       1.35817875      -1.36321231       0.00000000
Si       2.71498914      -2.71365336       0.00003465       0.00000000
Si      -0.00070047       2.71393029       2.71492247       0.00000000
Si       2.71435383      -0.00021177       2.71492247       0.00000000
Si      -2.71538010      -2.71453302      -0.00003465       0.00000000
Si      -0.00091224      -2.71567332       2.71488783       0.00000000
Si      -2.71606428      -0.00066789       2.71519964       0.00000000
