10
Lattice="16.28999089631971 0.0 0.0 0.0 16.28999089631971 0.0 0.0 0.0 34.64500226677339" Properties=species:S:1:pos:R:3:initial_magmoms:R:1 pbc="T T T"
Si       1.59985719       0.68235552      -1.53913973       0.00000000
Si       1.56082635      -0.83973321       1.56429202       0.00000000
Si      -0.91212597      -2.12933106      -0.49244434       0.00000000
Si      -1.61617977       1.72457343       0.27622476       0.00000000
Si       0.04096935      -1.78191423       3.06189237       0.00000000
Si       0.82919358      -2.87857332      -2.00726326       0.00000000
Si       2.62200582      -1.33480260      -2.12484847       0.00000000
Si       2.32117839       1.02227895       2.75545715       0.00000000
Si       0.56391093       1.11909042      -3.57283715       0.00000000
Si      -1.18848582      -3.19068972       1.66337678       0.00000000
