10
Lattice="16.28999089631971 0.0 0.0 0.0 16.28999089631971 0.0 0.0 0.0 34.64500226677339" Properties=species:S:1:pos:R:3:initial_magmoms:R:1 pbc="T T T"
Si      -1.35461124      -1.33832124       1.37693174       0.00000000
Si      -1.35454608       1.35726651      -1.35860452       0.00000000
Si       1.35894438      -1.35661491      -1.35843130       0.00000000
Si       1.35119034       1.34874684       1.37963405       0.00000000
Si       0.15286536      -2.51094060       2.81172067       0.00000000
Si       2.71775844       2.71205694       0.00415740       0.00000000
Si      -2.71391400      -0.00047241      -2.71599647       0.00000000
Si       0.00117288       2.71425609      -2.71596183       0.00000000
Si       0.00140094      -2.71637379      -2.71575396       0.00000000
Si       2.71645524      -0.00045612      -2.71578860       0.00000000
