10
Lattice="16.28999089631971 0.0 0.0 0.0 16.28999089631971 0.0 0.0 0.0 34.64500226677339" Properties=species:S:1:pos:R:3:initial_magmoms:R:1 pbc="T T T"
Si       1.55843172      -1.63584180      -0.58020018       0.00000000
Si      -1.67962932      -0.96140322       1.33009167       0.00000000
Si       0.59552982       1.75642038       1.46600409       0.00000000
Si       1.91290212       0.64356903      -2.43609934       0.00000000
Si       0.12631266       2.36449350      -2.20366589       0.00000000
Si      -3.51976401      -0.65930517      -0.21258185       0.00000000
Si       2.33572536       0.63573354       2.67764443       0.00000000
Si       3.50127486      -0.30499767      -0.95533647       0.00000000
Si       0.55690623       3.67365564      -0.04971561       0.00000000
Si       0.33866910      -2.98965483      -2.31293629       0.00000000
