10
Lattice="16.28999089631971 0.0 0.0 0.0 16.28999089631971 0.0 0.0 0.0 34.64500226677339" Properties=species:S:1:pos:R:3:initial_magmoms:R:1 pbc="T T T"
Si       1.99666530      -1.07828397      -0.49736393       0.00000000
Si      -0.97116093       1.29060783      -1.68572282       0.00000000
Si       0.56446479       1.33530759       1.86151166       0.00000000
Si      -1.24294329      -1.88876034       0.68281873       0.00000000
Si       1.14888483      -0.63778608       3.17272179       0.00000000
Si      -1.94069286      -0.37598949      -2.97659632       0.00000000
Si      -3.13372359       1.24348086       1.20627036       0.00000000
Si       2.24753130       2.69309538       0.78502155       0.00000000
Si       1.23631326      -2.94029613      -1.68852906       0.00000000
Si      -3.41744652      -1.06963398       0.50110559       0.00000000
