10
Lattice="16.28999089631971 0.0 0.0 0.0 16.28999089631971 0.0 0.0 0.0 34.64500226677339" Properties=species:S:1:pos:R:3:initial_magmoms:R:1 pbc="T T T"
Si       1.49667633       1.38904830      -1.08684897       0.00000000
Si      -0.96953193      -1.66659732      -1.29087351       0.00000000
Si      -1.58785146       1.33819092       1.05764322       0.00000000
Si       0.97116093      -1.29060783       1.68572282       0.00000000
Si      -2.16256266      -0.04712697       2.89199318       0.00000000
Si      -2.93693387      -2.13110667      -0.12441027       0.00000000
Si       3.53945862       1.15100253       0.06437045       0.00000000
Si      -3.21854562       1.87926327      -0.55289990       0.00000000
Si       0.64664784      -3.39117075      -1.56709826       0.00000000
Si       1.53562572       0.04469976       3.54723447       0.00000000
