10
Lattice="16.28999089631971 0.0 0.0 0.0 16.28999089631971 0.0 0.0 0.0 34.64500226677339" Properties=species:S:1:pos:R:3:initial_magmoms:R:1 pbc="T T T"
Si      -1.35571896      -1.35698958       1.35735730       0.00000000
Si      -1.35710361       1.35710361      -1.35714943       0.00000000
Si       1.35757602      -1.35733167      -1.35749588       0.00000000
Si       1.35713619       1.36065483       1.35735730       0.00000000
Si       0.00099369       2.71327130       2.71339809       0.00000000
Si       0.00009774      -2.71415835      -2.71398706       0.00000000
Si      -2.71349046       0.00127062      -2.71492247       0.00000000
Si      -2.71508688      -2.71472850      -0.00003465       0.00000000
Si       0.00127062       2.71622718      -2.71364061       0.00000000
Si       2.71497285       2.71495051       0.00013858       0.00000000
