10
Lattice="16.28999089631971 0.0 0.0 0.0 16.28999089631971 0.0 0.0 0.0 34.64500226677339" Properties=species:S:1:pos:R:3:initial_magmoms:R:1 pbc="T T T"
Si       1.61533269       1.13653701       1.24870255       0.00000000
Si      -1.12772249      -1.53747952       1.35097119       0.00000000
Si       0.89565678      -1.56355492      -1.49025114       0.00000000
Si      -0.15047073       2.22039216      -1.92213598       0.00000000
Si       0.92623311       0.38297790      -3.00077408       0.00000000
Si       0.23618871       2.51589276       2.61607226       0.00000000
Si      -2.48066584      -0.20033442       2.65747999       0.00000000
Si      -1.13375305      -2.94861122      -1.82336302       0.00000000
Si      -2.74340609      -2.45924428      -0.08484119       0.00000000
Si       2.73764853      -2.70893089      -0.30587643       0.00000000
