10
Lattice="16.28999089631971 0.0 0.0 0.0 16.28999089631971 0.0 0.0 0.0 34.64500226677339" Properties=species:S:1:pos:R:3:initial_magmoms:R:1 pbc="T T T"
Si      -0.83885355      -2.10571056       0.56499101       0.00000000
Si       1.82470806      -0.69506172      -1.31990603       0.00000000
Si       0.87594588       1.00867680       1.95016827       0.00000000
Si      -1.52355483       1.45720566      -1.25044277       0.00000000
Si      -0.76279554       0.28447227       3.45431653       0.00000000
Si       1.78608447       1.22217354      -2.83562573       0.00000000
Si      -0.45991557      -2.06586522       2.95518570       0.00000000
Si      -0.45045108      -3.41288532      -1.45581845       0.00000000
Si      -3.15827262      -2.08225296       0.30179278       0.00000000
Si       1.41675759       3.27652892       1.35368493       0.00000000
