10
Lattice="16.28999089631971 0.0 0.0 0.0 16.28999089631971 0.0 0.0 0.0 34.64500226677339" Properties=species:S:1:pos:R:3:initial_magmoms:R:1 pbc="T T T"
Si       2.17513854       0.90376920      -0.08837945       0.00000000
Si      -0.42021684      -0.18090045       2.33964760       0.00000000
Si       0.74920968      -1.98043136      -1.14626519       0.00000000
Si      -1.84761180       1.31022099      -0.94837282       0.00000000
Si       1.79201403       3.12769629       0.57185073       0.00000000
Si       1.93723938      -0.89427865      -2.99526999       0.00000000
Si      -2.90397757      -0.04173498      -2.49967296       0.00000000
Si      -3.15539418       2.00086812       0.96337412       0.00000000
Si       2.68744275       1.36243044      -2.41077383       0.00000000
Si       1.20345633       3.23164278      -1.78297139       0.00000000
