10
Lattice="16.28999089631971 0.0 0.0 0.0 16.28999089631971 0.0 0.0 0.0 34.64500226677339" Properties=species:S:1:pos:R:3:initial_magmoms:R:1 pbc="T T T"
Si       2.09732121      -0.56374803       0.86740741       0.00000000
Si       0.03932406       2.33460135       0.32074361       0.00000000
Si      -1.68306651      -1.35778779       1.07649011       0.00000000
Si       0.32076639      -0.25148502      -2.40637391       0.00000000
Si      -2.24753130      -2.69309538      -0.78502155       0.00000000
Si      -1.93082112       2.98475154      -0.77656816       0.00000000
Si       2.44364661      -2.84983776       0.63126694       0.00000000
Si       1.54468296       3.25770678      -1.32274693       0.00000000
Si       1.12822911      -2.49474834      -2.70016370       0.00000000
Si       1.21686300       1.82566917      -3.23130652       0.00000000
