10
Lattice="16.28999089631971 0.0 0.0 0.0 16.28999089631971 0.0 0.0 0.0 34.64500226677339" Properties=species:S:1:pos:R:3:initial_magmoms:R:1 pbc="T T T"
Si      -1.34164440      -1.33985250       1.37804038       0.00000000
Si      -1.34848620       1.35868374      -1.35908955       0.00000000
Si       1.36497168      -1.35589815      -1.35836201       0.00000000
Si       1.37138994       1.37627694       1.38282139       0.00000000
Si       0.12364110      -2.50077564       2.84771684       0.00000000
Si      -2.70821250       2.71119357       0.00381095       0.00000000
Si      -2.70889668      -0.00073305      -2.71554609       0.00000000
Si      -2.70985779      -2.71552671       0.00582036       0.00000000
Si       0.00581553       2.71399545      -2.71537286       0.00000000
Si       2.71665072       2.71425609       0.00135116       0.00000000
