10
Lattice="16.28999089631971 0.0 0.0 0.0 16.28999089631971 0.0 0.0 0.0 34.64500226677339" Properties=species:S:1:pos:R:3:initial_magmoms:R:1 pbc="T T T"
Si       1.63764999      -0.98637579       1.36671146       0.00000000
Si      -0.95804748      -1.81188783      -1.18659199       0.00000000
Si       1.87413192       1.07452098      -1.08085538       0.00000000
Si      -1.50864948       1.90892736       0.18583590       0.00000000
Si       0.39773664       2.20244058      -2.60045532       0.00000000
Si      -2.35359549      -0.52250175      -2.59654044       0.00000000
Si      -0.96086565      -0.21175371       3.51168868       0.00000000
Si       0.47110680      -2.06166240       3.08953909       0.00000000
Si       2.32339383       0.68343066       2.91281484       0.00000000
Si      -0.28888686       3.26274039       1.91857201       0.00000000
