10
Lattice="16.28999089631971 0.0 0.0 0.0 16.28999089631971 0.0 0.0 0.0 34.64500226677339" Properties=species:S:1:pos:R:3:initial_magmoms:R:1 pbc="T T T"
Si      -1.39554801       1.28938608      -1.40994845       0.00000000
Si       0.95804748       1.81188783       1.18659199       0.00000000
Si      -0.93408489      -1.80310752       1.24237048       0.00000000
Si       1.34594496      -1.41317379      -1.41074528       0.00000000
Si       2.59569747       0.82551204       2.55330345       0.00000000
Si       2.81123046      -2.57409693       0.05893118       0.00000000
Si      -0.02062314       2.63787228      -2.78497471       0.00000000
Si      -2.58489720       2.84552091       0.02314287       0.00000000
Si       0.92286108      -3.47488506       1.39823843       0.00000000
Si       2.68758936      -0.07332129      -2.78878566       0.00000000
