10
Lattice="16.28999089631971 0.0 0.0 0.0 16.28999089631971 0.0 0.0 0.0 34.64500226677339" Properties=species:S:1:pos:R:3:initial_magmoms:R:1 pbc="T T T"
Si       1.72411731       1.53896517      -0.58660951       0.00000000
Si      -1.08768330      -0.06428034      -2.15932026       0.00000000
Si       0.61107048      -2.15666568       0.93784074       0.00000000
Si      -1.23992964       1.29453372       1.74330284       0.00000000
Si       1.10633535       1.55180169       2.70317781       0.00000000
Si      -3.32322516       1.16655948       0.38591090       0.00000000
Si      -2.51965575       1.78562835      -1.73717067       0.00000000
Si       0.76460373       2.68081272      -2.33604452       0.00000000
Si       2.75603994      -0.15394050       2.61303147       0.00000000
Si       3.65505246       0.36745353      -1.36782010       0.00000000
