10
Lattice="16.28999089631971 0.0 0.0 0.0 16.28999089631971 0.0 0.0 0.0 34.64500226677339" Properties=species:S:1:pos:R:3:initial_magmoms:R:1 pbc="T T T"
Si       1.84658553       1.59485616      -0.20690007       0.00000000
Si       0.39175821      -0.64930311       2.33136744       0.00000000
Si      -2.40885280       0.48637053       0.29004812       0.00000000
Si       0.32741271      -1.91617641      -1.53169105       0.00000000
Si      -0.68494563       1.18811115       3.41000554       0.00000000
Si      -3.21145037      -1.78598673       0.24147580       0.00000000
Si       0.56022939      -3.71989969       0.01333833       0.00000000
Si      -1.54572552      -3.29476653       1.19158087       0.00000000
Si       3.16403928       1.03690737      -2.13960725       0.00000000
Si       2.60675838      -0.16922052       3.00109035       0.00000000
