10
Lattice="16.28999089631971 0.0 0.0 0.0 16.28999089631971 0.0 0.0 0.0 34.64500226677339" Properties=species:S:1:pos:R:3:initial_magmoms:R:1 pbc="T T T"
Si      -1.58837274       0.94856670      -1.48076287       0.00000000
Si      -1.94284314      -1.33084413       0.37513629       0.00000000
Si       1.24854705      -1.75630635      -1.20117754       0.00000000
Si       0.77600673       1.20682836       2.24108251       0.00000000
Si       2.12895639      -2.18662299       0.98883821       0.00000000
Si       0.21787875       1.90475712      -2.65921328       0.00000000
Si       2.26810557      -0.51911343       2.71225481       0.00000000
Si      -3.50127486       0.30499767       0.95533647       0.00000000
Si      -1.25887491      -2.78703981       2.03657295       0.00000000
Si       1.64890638       3.21359346      -1.08955129       0.00000000
