10
Lattice="16.28999089631971 0.0 0.0 0.0 16.28999089631971 0.0 0.0 0.0 34.64500226677339" Properties=species:S:1:pos:R:3:initial_magmoms:R:1 pbc="T T T"
Si      -0.68396823       1.45619568      -1.66143666       0.00000000
Si       1.92831246      -1.12311405      -0.66719383       0.00000000
Si       0.23359860       1.31346270       1.96724826       0.00000000
Si      -1.35594702      -2.01829842      -0.06831998       0.00000000
Si      -1.00812294      -0.05898609       3.42625406       0.00000000
Si       3.38783130       0.60041682      -1.04773474       0.00000000
Si       1.25887491       2.78703981      -2.03657295       0.00000000
Si       1.24256862      -2.79292050      -2.21329721       0.00000000
Si       2.88782604      -2.26496160       1.08224119       0.00000000
Si       2.51760321       1.40789583       2.56882442       0.00000000
