10
Lattice="16.28999089631971 0.0 0.0 0.0 16.28999089631971 0.0 0.0 0.0 34.64500226677339" Properties=species:S:1:pos:R:3:initial_magmoms:R:1 pbc="T T T"
Si      -1.34614044      -1.34309421      -1.36459811       0.00000000
Si      -1.35293337       1.35928647       1.35815414       0.00000000
Si       1.36029645      -1.35224919       1.35856988       0.00000000
Si       1.36793646       1.36847403      -1.34652727       0.00000000
Si      -2.48069007       0.17611119      -2.77863121       0.00000000
Si       0.07405434      -2.51499681      -2.86938384       0.00000000
Si      -2.71151937      -2.71314837      -0.00495424       0.00000000
Si      -2.71267596       0.00117288       2.71554609       0.00000000
Si       0.00144981      -2.71259451       2.71578860       0.00000000
Si       2.71324611       2.71801649       0.00311805       0.00000000
