10
Lattice="16.28999089631971 0.0 0.0 0.0 16.28999089631971 0.0 0.0 0.0 34.64500226677339" Properties=species:S:1:pos:R:3:initial_magmoms:R:1 pbc="T T T"
Si       1.78235406      -0.60541785      -1.39148265       0.00000000
Si      -0.89609661      -2.07715419       0.82493261       0.00000000
Si       0.32781996       1.43203761       1.90855960       0.00000000
Si      -1.60301745       1.23543360      -1.33130425       0.00000000
Si      -3.24175887       0.51122907       0.17284401       0.00000000
Si      -2.93887890      -1.83910842      -0.32628681       0.00000000
Si       2.60737740       1.57022568      -1.69982334       0.00000000
Si       2.57486256       0.82546317       2.41267931       0.00000000
Si      -1.17753894       0.50893218       3.55205013       0.00000000
Si       1.08594027      -1.58899176      -3.38973821       0.00000000
