10
Lattice="16.28999089631971 0.0 0.0 0.0 16.28999089631971 0.0 0.0 0.0 34.64500226677339" Properties=species:S:1:pos:R:3:initial_magmoms:R:1 pbc="T T T"
Si       2.24704260      -0.60657444       0.50411971       0.00000000
Si      -0.32781996      -1.43203761      -1.90855960       0.00000000
Si      -1.50535890      -0.92310543       1.64349054       0.00000000
Si      -0.31345218       2.48664311      -0.23745698       0.00000000
Si      -3.47550408      -0.27295524       0.54617877       0.00000000
Si       2.60367957       0.82967969       2.38600264       0.00000000
Si       3.40263891       0.06529032      -1.49358153       0.00000000
Si      -1.93083741      -0.19660401      -3.23986384       0.00000000
Si      -1.54468296      -3.25770678       1.32274693       0.00000000
Si      -1.22391657      -3.50919180      -1.08362699       0.00000000
