10
Lattice="16.28999089631971 0.0 0.0 0.0 16.28999089631971 0.0 0.0 0.0 34.64500226677339" Properties=species:S:1:pos:R:3:initial_magmoms:R:1 pbc="T T T"
Si       0.46069749      -0.14494842       2.29246424       0.00000000
Si      -0.58508793       1.86772085      -1.33889151       0.00000000
Si      -2.27405142      -1.23701373       0.32718758       0.00000000
Si       2.34926235      -0.10177992      -1.20980416       0.00000000
Si       2.26751913      -1.97643312       2.07471712       0.00000000
Si      -1.55913219       0.93761723      -3.36119071       0.00000000
Si      -1.36477620      -1.09289610       3.48437251       0.00000000
Si       1.25296164       3.37651694      -1.61750677       0.00000000
Si      -2.38611033       3.13812908      -0.30071879       0.00000000
Si      -2.71966437      -2.39775768      -1.64300551       0.00000000
