10
Lattice="16.28999089631971 0.0 0.0 0.0 16.28999089631971 0.0 0.0 0.0 34.64500226677339" Properties=species:S:1:pos:R:3:initial_magmoms:R:1 pbc="T T T"
Si       1.35484734       1.35581344      -1.35704550       0.00000000
Si       1.35337040      -1.35984876       1.35929742       0.00000000
Si      -1.36028016      -1.35901951      -1.35714943       0.00000000
Si      -1.36083402       1.35434734       1.36210367       0.00000000
Si       2.71249907      -0.00151986      -2.71384848       0.00000000
Si       2.71261799      -2.71465749       0.00062361       0.00000000
Si      -0.00293220       2.71355236      -2.71402170       0.00000000
Si       2.71330542       2.71441573       0.00200941       0.00000000
Si      -2.71505430      -2.71429911       0.00069290       0.00000000
Si      -0.00291591      -2.71633536      -2.71360596       0.00000000
