10
Lattice="16.28999089631971 0.0 0.0 0.0 16.28999089631971 0.0 0.0 0.0 34.64500226677339" Properties=species:S:1:pos:R:3:initial_magmoms:R:1 pbc="T T T"
Si      -0.09705582       1.14948919       1.96981199       0.00000000
Si       1.27294525       1.55468665      -1.08882374       0.00000000
Si      -1.64488275      -1.27009888      -1.06124630       0.00000000
Si       2.41635013       0.03335540      -2.43932133       0.00000000
Si       1.92122535       0.45742483       2.84574208       0.00000000
Si      -0.29054844      -2.67270586      -2.42917034       0.00000000
Si      -0.29279646       2.76112405      -2.43890559       0.00000000
Si      -2.81266398      -2.48136352       0.61879473       0.00000000
Si      -2.11911723       0.97977997       3.02561903       0.00000000
Si      -3.03103143       0.06092134      -2.43336238       0.00000000
