10
Lattice="16.28999089631971 0.0 0.0 0.0 16.28999089631971 0.0 0.0 0.0 34.64500226677339" Properties=species:S:1:pos:R:3:initial_magmoms:R:1 pbc="T T T"
Si      -1.49468895      -1.85642373      -0.01378872       0.00000000
Si       0.50981184       1.09814963       2.09598916       0.00000000
Si      -1.59527970       1.73606602      -0.57805219       0.00000000
Si       2.09078892      -0.85536346      -0.95977103       0.00000000
Si      -1.68614532       1.13582840       3.07990778       0.00000000
Si       2.53661774      -2.67743973       0.60673826       0.00000000
Si      -0.57998916      -1.65533997      -3.33794390       0.00000000
Si      -0.17951580      -3.78177141      -0.44158545       0.00000000
Si      -2.61777042      -1.78352598      -2.12859013       0.00000000
Si      -0.31278429       3.66160919      -1.13303079       0.00000000
