10
Lattice="16.28999089631971 0.0 0.0 0.0 16.28999089631971 0.0 0.0 0.0 34.64500226677339" Properties=species:S:1:pos:R:3:initial_magmoms:R:1 pbc="T T T"
Si      -1.45445265       1.17954913      -1.43905026       0.00000000
Si      -0.68711220      -2.24143951       0.34714312       0.00000000
Si       2.13875224       0.33108448      -1.02473045       0.00000000
Si       0.37804203       0.75899020       2.25632632       0.00000000
Si      -0.04799034       3.16730380      -1.67179552       0.00000000
Si       2.58094592      -1.67111032      -2.20494776       0.00000000
Si      -2.68698663      -2.23814893       1.63552218       0.00000000
Si      -3.65040981       1.21722790      -0.45513165       0.00000000
Si       2.04376688      -0.74978960       3.20643140       0.00000000
Si       1.98687894       2.19935200      -2.50448861       0.00000000
