10
Lattice="16.28999089631971 0.0 0.0 0.0 16.28999089631971 0.0 0.0 0.0 34.64500226677339" Properties=species:S:1:pos:R:3:initial_magmoms:R:1 pbc="T T T"
Si      -1.38999542       1.20940218       1.52609588       0.00000000
Si       0.99530760       1.75668102      -1.34719388       0.00000000
Si      -1.80806198      -1.05451686      -1.28271949       0.00000000
Si       1.32294837      -1.49219658       1.52084716       0.00000000
Si      -2.58763622       2.54143548      -0.11174752       0.00000000
Si       0.93628893      -1.78769718      -3.01736108       0.00000000
Si       2.66400633       2.70260874       0.07063081       0.00000000
Si      -2.62945265      -2.78327682       0.12287203       0.00000000
Si      -0.03879952       2.55902868       2.91010560       0.00000000
Si      -3.59618270       0.72547515      -1.30371438       0.00000000
