10
Lattice="16.28999089631971 0.0 0.0 0.0 16.28999089631971 0.0 0.0 0.0 34.64500226677339" Properties=species:S:1:pos:R:3:initial_magmoms:R:1 pbc="T T T"
Si      -1.35596331      -1.35505107       1.35718408       0.00000000
Si       1.35720135      -1.35744570      -1.35725337       0.00000000
Si      -1.35798327       1.35775521      -1.35742659       0.00000000
Si       1.35848826       1.35967743       1.35874310       0.00000000
Si      -2.71383255       0.00078192      -2.71391777       0.00000000
Si       0.00086337      -2.71479366      -2.71357132       0.00000000
Si       2.71448001       2.71485882      -0.00086613       0.00000000
Si       0.00096111       2.71652040      -2.71336345       0.00000000
Si      -2.71511946       2.71484253       0.00017323       0.00000000
Si       2.71498089      -2.71518462      -0.00027716       0.00000000
