10
Lattice="16.28999089631971 0.0 0.0 0.0 16.28999089631971 0.0 0.0 0.0 34.64500226677339" Properties=species:S:1:pos:R:3:initial_magmoms:R:1 pbc="T T T"
Si       1.55699887       0.97972947      -1.47854559       0.00000000
Si       0.71961075      -1.71996336       1.47279451       0.00000000
Si      -1.50944769      -1.14425847      -1.52348018       0.00000000
Si      -0.40363362       1.89770355       1.53127531       0.00000000
Si      -3.15915228       0.56148372      -1.43333383       0.00000000
Si      -2.34271377       1.26483705       2.61396688       0.00000000
Si       2.49569057       2.77110819      -0.18306429       0.00000000
Si       0.74637522      -0.73018296       3.66443858       0.00000000
Si       0.29380644       2.04949377      -3.24454092       0.00000000
Si       2.75448003      -2.68791516       0.64010142       0.00000000
