10
Lattice="16.28999089631971 0.0 0.0 0.0 16.28999089631971 0.0 0.0 0.0 34.64500226677339" Properties=species:S:1:pos:R:3:initial_magmoms:R:1 pbc="T T T"
Si      -1.35493704      -1.35469269       1.35725337       0.00000000
Si       1.35728280       1.35790182       1.35749588       0.00000000
Si       1.35777150      -1.35777150      -1.35753053       0.00000000
Si      -1.35817875       1.35811359      -1.35718408       0.00000000
Si       0.00099369      -2.71339272      -2.71332880       0.00000000
Si      -2.71301805       0.00184077      -2.71377919       0.00000000
Si       2.71304003       0.00257382       2.71509570       0.00000000
Si       2.71451259      -2.71505430      -0.00083148       0.00000000
Si       2.71485278       2.71489140      -0.00006929       0.00000000
Si       0.00000000       2.71376739       2.71623899       0.00000000
