10
Lattice="16.28999089631971 0.0 0.0 0.0 16.28999089631971 0.0 0.0 0.0 34.64500226677339" Properties=species:S:1:pos:R:3:initial_magmoms:R:1 pbc="T T T"
Si      -1.70847891      -0.98603370      -1.30837067       0.00000000
Si      -1.42019478       1.17190260       1.50478573       0.00000000
Si       1.07755092       1.80757098      -1.31890275       0.00000000
Si       1.29720528      -1.55137815       1.45439801       0.00000000
Si      -0.02617803      -1.20715416      -3.25628701       0.00000000
Si      -2.55474441       2.69110800       0.09075263       0.00000000
Si      -3.41312967       0.89383230      -1.29922438       0.00000000
Si      -0.07405434       2.51499681       2.86938384       0.00000000
Si       2.73900060       2.67336819       0.13033457       0.00000000
Si      -0.72927072       3.63905568      -1.10115564       0.00000000
