10
Lattice="16.28999089631971 0.0 0.0 0.0 16.28999089631971 0.0 0.0 0.0 34.64500226677339" Properties=species:S:1:pos:R:3:initial_magmoms:R:1 pbc="T T T"
Si      -1.44511848       1.21010265       1.39252200       0.00000000
Si      -1.66144968      -0.86579721      -1.44923733       0.00000000
Si       0.99961956       1.67617488      -1.34991005       0.00000000
Si       1.26757377      -1.51298262       1.35233724       0.00000000
Si       2.61530316       2.59793964       0.08590233       0.00000000
Si      -2.53146600       2.72136409      -0.04129340       0.00000000
Si      -0.24612561      -0.71433279      -3.66880528       0.00000000
Si      -0.09980883       2.55964511       2.74216732       0.00000000
Si       2.62098348      -0.15905556       2.73641625       0.00000000
Si      -3.46827132       0.96568749      -1.23149021       0.00000000
