10
Lattice="16.28999089631971 0.0 0.0 0.0 16.28999089631971 0.0 0.0 0.0 34.64500226677339" Properties=species:S:1:pos:R:3:initial_magmoms:R:1 pbc="T T T"
Si       1.35658233       1.35428544       1.35759982       0.00000000
Si      -1.36029645       1.35224919      -1.35856988       0.00000000
Si      -1.35884664      -1.36034532       1.35721872       0.00000000
Si       1.35477414      -1.36394541      -1.36411308       0.00000000
Si      -2.71322982       2.71153566      -0.00041574       0.00000000
Si      -0.00078192       2.71160129       2.71405635       0.00000000
Si       0.00764001       2.72072322      -2.70509715       0.00000000
Si       2.71418489      -0.00356751       2.71433351       0.00000000
Si      -2.70643689       0.00915498      -2.72316799       0.00000000
Si       2.71542026       2.71442639      -0.00069290       0.00000000
