10
Lattice="16.28999089631971 0.0 0.0 0.0 16.28999089631971 0.0 0.0 0.0 34.64500226677339" Properties=species:S:1:pos:R:3:initial_magmoms:R:1 pbc="T T T"
Si       1.33900262       1.35725223      -1.38077734       0.00000000
Si      -1.37453391      -1.35821133      -1.38063876       0.00000000
Si      -1.35433431       1.40260697       1.36792403       0.00000000
Si       1.52534577      -1.26115551       1.46652377       0.00000000
Si       0.29054844       2.67270586       2.42917034       0.00000000
Si      -0.13010823      -2.35642995       2.79689260       0.00000000
Si       2.69832351      -2.71174743      -0.01507058       0.00000000
Si       2.70689857       2.70606126      -0.01015099       0.00000000
Si      -2.74315455      -2.69420310      -0.00942345       0.00000000
Si       2.69825021       0.00244350      -2.73945115       0.00000000
