10
Lattice="16.28999089631971 0.0 0.0 0.0 16.28999089631971 0.0 0.0 0.0 34.64500226677339" Properties=species:S:1:pos:R:3:initial_magmoms:R:1 pbc="T T T"
Si       1.16778123       1.21126463      -1.68004103       0.00000000
Si      -0.70043742       1.61936025       1.75324596       0.00000000
Si      -1.43102763      -1.30883634      -1.56966199       0.00000000
Si       0.47180727      -0.02495628       3.11126152       0.00000000
Si       2.57546529      -0.66301929       1.91195481       0.00000000
Si       2.39200731      -2.54777229      -0.25107247       0.00000000
Si      -1.64890638      -3.21359346       1.08955129       0.00000000
Si       2.81266398       2.48136352      -0.61879473       0.00000000
Si       2.52211554      -0.19134234      -3.04796507       0.00000000
Si      -3.23727912      -2.26502676      -0.39121158       0.00000000
