10
Lattice="16.28999089631971 0.0 0.0 0.0 16.28999089631971 0.0 0.0 0.0 34.64500226677339" Properties=species:S:1:pos:R:3:initial_magmoms:R:1 pbc="T T T"
Si       1.21094973      -1.91428677       0.71836452       0.00000000
Si      -2.10365802       0.63806301       1.19930671       0.00000000
Si       1.71911532       1.52614494       1.27736195       0.00000000
Si      -0.18345798      -1.88475300      -2.16302728       0.00000000
Si      -2.57546529       0.66301929      -1.91195481       0.00000000
Si       0.03536559      -2.22769008       2.75750121       0.00000000
Si       0.88053966      -3.61683612      -0.95897420       0.00000000
Si       1.47199602      -0.78947856      -3.49339611       0.00000000
Si       3.81512519       0.76988169       0.44636646       0.00000000
Si       3.51315746      -1.44941904       1.03443106       0.00000000
