10
Lattice="16.28999089631971 0.0 0.0 0.0 16.28999089631971 0.0 0.0 0.0 34.64500226677339" Properties=species:S:1:pos:R:3:initial_magmoms:R:1 pbc="T T T"
Si       0.68711220       2.24143951      -0.34714312       0.00000000
Si      -1.99987443       0.00329058       1.28837906       0.00000000
Si      -0.47592864      -1.27294947      -2.01062383       0.00000000
Si       1.83061060      -1.17296145       1.10853676       0.00000000
Si       1.25946545      -0.35460072      -3.27544428       0.00000000
Si      -0.37434420      -3.45378951      -1.07316419       0.00000000
Si       1.35885464      -3.39677451       0.44841051       0.00000000
Si       1.06515423       3.00042971       1.90918321       0.00000000
Si      -3.57080058       1.23080465      -0.01638710       0.00000000
Si      -1.58060241       0.62757225       3.53115918       0.00000000
