10
Lattice="16.28999089631971 0.0 0.0 0.0 16.28999089631971 0.0 0.0 0.0 34.64500226677339" Properties=species:S:1:pos:R:3:initial_magmoms:R:1 pbc="T T T"
Si       1.35604476      -1.35661395       1.35888168       0.00000000
Si      -1.35967743       1.35805657       1.35777304       0.00000000
Si       1.35653346       1.34709340      -1.37372708       0.00000000
Si      -1.35687555      -1.36435088      -1.36148699       0.00000000
Si      -2.72140577       0.03920514      -2.65342410       0.00000000
Si       0.05551632      -2.62228179      -2.77888758       0.00000000
Si       2.71187775      -0.00012706       2.71551144       0.00000000
Si       2.71116099       2.71687063       0.00065826       0.00000000
Si      -0.00228060       2.71401988       2.71523428       0.00000000
Si       2.71018359      -2.72070597      -0.00006929       0.00000000
