10
Lattice="16.28999089631971 0.0 0.0 0.0 16.28999089631971 0.0 0.0 0.0 34.64500226677339" Properties=species:S:1:pos:R:3:initial_magmoms:R:1 pbc="T T T"
Si       1.41500641      -1.21738428       1.41597668       0.00000000
Si       1.35289265       1.35479043      -1.36314302       0.00000000
Si      -1.35981739      -1.35765747      -1.36671146       0.00000000
Si      -1.17297774       1.45059192       1.48159435       0.00000000
Si       2.38435915       0.47583090       2.78306923       0.00000000
Si       0.02967386      -2.43382374       2.86268349       0.00000000
Si       0.77629180       2.39498838       2.87439351       0.00000000
Si      -2.69832351       2.71174743       0.01507058       0.00000000
Si       2.71626790      -2.69783577       0.01091318       0.00000000
Si      -2.71506963      -2.71288773      -0.00097006       0.00000000
