10
Lattice="16.28999089631971 0.0 0.0 0.0 16.28999089631971 0.0 0.0 0.0 34.64500226677339" Properties=species:S:1:pos:R:3:initial_magmoms:R:1 pbc="T T T"
Si      -0.30196773      -2.21930073       0.58806460       0.00000000
Si      -2.09600987       0.75626325       0.83099549       0.00000000
Si       1.99648611       0.89322957       1.22203385       0.00000000
Si      -0.39385962      -0.61496379      -2.54696341       0.00000000
Si      -1.65670114       2.83192595      -0.13137392       0.00000000
Si      -2.60417546      -2.68416846       0.27199806       0.00000000
Si       3.18451581       1.97938228      -0.62697096       0.00000000
Si       0.36176832      -2.64622905       2.77426940       0.00000000
Si       1.21420773      -2.53412127      -2.63828769       0.00000000
Si       1.22945517      -3.67476336      -0.52601536       0.00000000
