10
Lattice="16.28999089631971 0.0 0.0 0.0 16.28999089631971 0.0 0.0 0.0 34.64500226677339" Properties=species:S:1:pos:R:3:initial_magmoms:R:1 pbc="T T T"
Si      -0.66373605       0.42692832      -2.18620480       0.00000000
Si       2.31941907      -0.02345760       0.26319823       0.00000000
Si      -0.73935423      -2.19440961       0.44113506       0.00000000
Si      -1.03697253       1.63398474       1.35153694       0.00000000
Si       2.70782154      -1.33063236      -1.75761124       0.00000000
Si       0.86768685      -1.02853431      -3.30028476       0.00000000
Si       2.69835705       0.01638774       2.65339292       0.00000000
Si       3.15827262       2.08225296      -0.30179278       0.00000000
Si      -3.10263317      -2.05571655       0.78204207       0.00000000
Si      -2.01686490       0.50660271       3.18734199       0.00000000
