10
Lattice="16.28999089631971 0.0 0.0 0.0 16.28999089631971 0.0 0.0 0.0 34.25627252547053" Properties=species:S:1:pos:R:3:initial_magmoms:R:1 pbc="T T T"
Si      -2.29055386      -0.38757168      -0.25633983       0.00000000
Si       0.33931093       0.41622579       2.29225976       0.00000000
Si       0.85083322       2.01893277      -0.89641864       0.00000000
Si       1.54788232      -1.72115253      -0.55460936       0.00000000
Si       3.20130103      -0.31509747       0.42947113       0.00000000
Si       3.12711637       1.98327722      -0.04491000       0.00000000
Si       2.59067038      -0.07517835       2.65297851       0.00000000
Si       0.71588686       1.64675188      -3.25095634       0.00000000
Si      -2.67276613      -0.27321588      -2.59707224       0.00000000
Si      -3.44670403       1.28277234       0.90004981       0.00000000
