10
Lattice="16.28999089631971 0.0 0.0 0.0 16.28999089631971 0.0 0.0 0.0 34.25627252547053" Properties=species:S:1:pos:R:3:initial_magmoms:R:1 pbc="T T T"
Si       1.35399222      -1.35468675      -1.35881007       0.00000000
Si      -1.36228383       1.36313752      -1.35925540       0.00000000
Si      -1.35692442      -1.36837035       1.36795650       0.00000000
Si       1.37402892       1.35899009       1.38210434       0.00000000
Si      -2.63169837       0.06373521       2.68843377       0.00000000
Si       2.71039536      -2.71055232      -0.00065087       0.00000000
Si      -2.71767699      -2.71053603      -0.00003426       0.00000000
Si       2.71148679       0.00357707      -2.71755162       0.00000000
Si      -0.00402363      -2.71117134      -2.71813398       0.00000000
Si       2.71109583       2.71856978      -0.00589208       0.00000000
