10
Lattice="16.28999089631971 0.0 0.0 0.0 16.28999089631971 0.0 0.0 0.0 34.25627252547053" Properties=species:S:1:pos:R:3:initial_magmoms:R:1 pbc="T T T"
Si       1.06401393      -1.84247393      -1.08373204       0.00000000
Si      -1.00580976      -1.58312736       1.61131803       0.00000000
Si       1.57242483       1.11418713       1.56946026       0.00000000
Si      -0.51074037       2.15816436      -1.42201292       0.00000000
Si      -2.42662356      -1.22937372      -1.20482803       0.00000000
Si       2.80790730       2.49031746       0.11308002       0.00000000
Si      -2.36069793      -0.13603779       2.95455861       0.00000000
Si      -2.20348314      -3.08103263       0.22153544       0.00000000
Si      -3.69147690       0.69320466      -0.66960773       0.00000000
Si      -2.47857237       3.01285179      -0.00243220       0.00000000
