10
Lattice="16.28999089631971 0.0 0.0 0.0 16.28999089631971 0.0 0.0 0.0 34.25627252547053" Properties=species:S:1:pos:R:3:initial_magmoms:R:1 pbc="T T T"
Si      -1.35707103       1.35663120      -1.36285231       0.00000000
Si       1.35923760      -1.35845568      -1.36264677       0.00000000
Si       1.34415306       1.37293749       1.36723711       0.00000000
Si      -1.35738054      -1.37336103       1.39495045       0.00000000
Si       2.64823272      -0.04065984       2.70086880       0.00000000
Si      -2.71210581       2.71334385       0.00061661       0.00000000
Si      -2.71363707      -2.71500543      -0.00715956       0.00000000
Si       2.71823085       2.71101438      -0.00380245       0.00000000
Si       2.71510317      -2.71505430      -0.00801597       0.00000000
Si       0.00006516       2.71494027      -2.71994956       0.00000000
