10
Lattice="16.28999089631971 0.0 0.0 0.0 16.28999089631971 0.0 0.0 0.0 34.25627252547053" Properties=species:S:1:pos:R:3:initial_magmoms:R:1 pbc="T T T"
Si       1.30407966      -1.41359733       1.33363169       0.00000000
Si       1.37407779       1.33807689      -1.37103956       0.00000000
Si      -1.34415306      -1.37293749      -1.36723711       0.00000000
Si      -1.31996241       1.44076905       1.43352304       0.00000000
Si       0.30185370       2.47305006       2.86225019       0.00000000
Si      -2.69985573       2.71894761       0.00746787       0.00000000
Si       0.01435149       2.70063765      -2.72789702       0.00000000
Si      -2.70122409      -0.01630629      -2.73008942       0.00000000
Si       2.73870738       2.70070281       0.01500426       0.00000000
Si      -2.70153360      -2.74629852       0.02771334       0.00000000
