10
Lattice="16.28999089631971 0.0 0.0 0.0 16.28999089631971 0.0 0.0 0.0 34.25627252547053" Properties=species:S:1:pos:R:3:initial_magmoms:R:1 pbc="T T T"
Si      -1.30407966       1.41359733      -1.33363169       0.00000000
Si      -1.32849837      -1.22823342       1.49398539       0.00000000
Si       1.41143076      -1.33349940      -1.34233279       0.00000000
Si       1.79709651       0.82821618       1.29026323       0.00000000
Si       0.51691428       2.35004427       2.62170251       0.00000000
Si       0.35266221      -2.06368236       3.11715126       0.00000000
Si      -2.64823272       0.04065984      -2.70086880       0.00000000
Si       0.06687045      -2.67439446      -2.70888478       0.00000000
Si       2.72355768      -2.66059683       0.14678821       0.00000000
Si      -2.59776630      -2.82297555       0.21437587       0.00000000
