10
Lattice="16.28999089631971 0.0 0.0 0.0 16.28999089631971 0.0 0.0 0.0 34.25627252547053" Properties=species:S:1:pos:R:3:initial_magmoms:R:1 pbc="T T T"
Si       0.57927240       2.10359286      -0.85925056       0.00000000
Si       0.99504207      -1.93326462      -0.91378658       0.00000000
Si       0.40982382       0.38793006       2.34600788       0.00000000
Si      -2.34010737       0.12601944      -0.66152325       0.00000000
Si      -1.91096361       0.52924581       2.63413755       0.00000000
Si      -2.64135834       1.92003714       0.79022414       0.00000000
Si       0.54752319       1.45111320      -3.10978616       0.00000000
Si      -2.33204382      -1.78958682       2.09151789       0.00000000
Si      -0.83815308      -0.35227125      -3.54473829       0.00000000
Si      -0.48288447      -2.46428604      -2.67603299       0.00000000
