10
Lattice="16.28999089631971 0.0 0.0 0.0 16.28999089631971 0.0 0.0 0.0 34.25627252547053" Properties=species:S:1:pos:R:3:initial_magmoms:R:1 pbc="T T T"
Si       1.48626702       1.12638834       1.47224776       0.00000000
Si      -0.93703338      -1.59576840       1.54515542       0.00000000
Si      -1.95877476       1.62940725      -0.02723375       0.00000000
Si       1.96783200      -0.85468743      -1.41958073       0.00000000
Si      -1.21290453      -2.31964713      -0.66717554       0.00000000
Si      -1.84494024       1.68261039      -2.67199075       0.00000000
Si       0.10505421       2.30177700       2.96254032       0.00000000
Si       2.63909403       2.68646535       0.06443608       0.00000000
Si       3.66182910       0.83831598      -1.02840813       0.00000000
Si       2.47857237      -3.01285179       0.00243220       0.00000000
