10
Lattice="16.28999089631971 0.0 0.0 0.0 16.28999089631971 0.0 0.0 0.0 34.25627252547053" Properties=species:S:1:pos:R:3:initial_magmoms:R:1 pbc="T T T"
Si       1.35663120       1.35682668      -1.35925540       0.00000000
Si      -1.35843939      -1.35863487      -1.35928965       0.00000000
Si      -1.36521603       1.35713619       1.35517890       0.00000000
Si       1.35972630      -1.36256076       1.35685746       0.00000000
Si       2.71516833       2.71220355      -0.00191835       0.00000000
Si      -2.71492398       2.71331127      -0.00284327       0.00000000
Si      -0.01435149      -2.70063765       2.72789702       0.00000000
Si      -0.00043983       2.71373481      -2.71659244       0.00000000
Si       2.71396287      -0.00122175      -2.71648967       0.00000000
Si       2.71373481      -2.71720458      -0.00205538       0.00000000
