10
Lattice="16.28999089631971 0.0 0.0 0.0 16.28999089631971 0.0 0.0 0.0 34.25627252547053" Properties=species:S:1:pos:R:3:initial_magmoms:R:1 pbc="T T T"
Si       1.23548247       1.37613033      -1.45638024       0.00000000
Si      -1.24105365       1.48949244       1.37484886       0.00000000
Si       1.48480092      -1.23632955       1.38835612       0.00000000
Si      -1.57242483      -1.11418713      -1.56946026       0.00000000
Si      -2.57823459      -2.69731449       0.04185776       0.00000000
Si      -2.59113627       0.12530268       2.75619957       0.00000000
Si       0.12686652      -2.59394467       2.75911135       0.00000000
Si      -2.08316520       1.04397723      -2.99147319       0.00000000
Si      -0.38916810       2.73698064      -2.60030059       0.00000000
Si       2.85477363      -2.57332967      -0.02985778       0.00000000
