10
Lattice="16.28999089631971 0.0 0.0 0.0 16.28999089631971 0.0 0.0 0.0 34.25627252547053" Properties=species:S:1:pos:R:3:initial_magmoms:R:1 pbc="T T T"
Si       1.35694071       1.35601218       1.35815920       0.00000000
Si      -1.35822762      -1.35855016       1.35788515       0.00000000
Si       1.35940050      -1.36014007      -1.35654915       0.00000000
Si      -1.35860229       1.35910728      -1.35946093       0.00000000
Si       2.71383255       2.71487511       0.00071938       0.00000000
Si      -0.00048870       2.71352304       2.71518793       0.00000000
Si       2.71344159      -0.00092853       2.71546198       0.00000000
Si      -2.71342530      -2.71604478      -0.00037682       0.00000000
Si      -2.71622718       2.71344159       0.00082215       0.00000000
Si      -2.71565703      -0.00148239       2.71542773       0.00000000
