10
Lattice="16.28999089631971 0.0 0.0 0.0 16.28999089631971 0.0 0.0 0.0 34.25627252547053" Properties=species:S:1:pos:R:3:initial_magmoms:R:1 pbc="T T T"
Si      -2.02048128       1.09661022       0.23568329       0.00000000
Si       1.78901667       0.56534445       1.37240981       0.00000000
Si       0.15201828      -0.10565694      -2.37433783       0.00000000
Si      -0.06253731      -2.17836070       0.96308138       0.00000000
Si      -0.94597659      -0.00617391       3.12078243       0.00000000
Si       1.90083123      -1.63468521       2.15338475       0.00000000
Si      -3.25464426      -0.70095870      -0.58355593       0.00000000
Si       3.32491932       0.57249576      -0.44238575       0.00000000
Si      -2.08748205      -0.78081228      -2.62625860       0.00000000
Si      -1.53917694       2.92537449      -1.11230179       0.00000000
