10
Lattice="16.28999089631971 0.0 0.0 0.0 16.28999089631971 0.0 0.0 0.0 34.25627252547053" Properties=species:S:1:pos:R:3:initial_magmoms:R:1 pbc="T T T"
Si      -1.35027810      -1.33400439       1.36592167       0.00000000
Si      -1.37994219       1.37163429      -1.34259656       0.00000000
Si       1.36700793       1.37961639       1.36451716       0.00000000
Si       1.24007625      -1.42915428      -1.47239365       0.00000000
Si       2.00122650       0.60048198      -2.63667868       0.00000000
Si       0.22142997       2.43926460      -2.61791411       0.00000000
Si      -2.71552671      -2.68327251      -0.01971107       0.00000000
Si       0.00682551      -2.69169444       2.72181995       0.00000000
Si       2.72508894      -2.69377956      -0.02717552       0.00000000
Si      -2.70845685       0.02032992       2.72260785       0.00000000
