10
Lattice="16.28999089631971 0.0 0.0 0.0 16.28999089631971 0.0 0.0 0.0 34.25627252547053" Properties=species:S:1:pos:R:3:initial_magmoms:R:1 pbc="T T T"
Si       1.13852439      -1.61534898      -1.20914433       0.00000000
Si       0.32635386       1.77152121      -1.49586949       0.00000000
Si      -2.34532017       0.18450054       0.30851216       0.00000000
Si       0.97542891      -0.38863053       2.21233983       0.00000000
Si      -0.14320539       1.51081605       3.07964062       0.00000000
Si       3.33174483      -0.66552795      -0.75754363       0.00000000
Si       0.65722005      -3.44411325       0.13884075       0.00000000
Si      -2.31357096       0.83698020       2.55904776       0.00000000
Si       2.64780918       1.22922711      -2.05887164       0.00000000
Si       0.37305729      -2.71715571       2.31736962       0.00000000
