10
Lattice="16.28999089631971 0.0 0.0 0.0 16.28999089631971 0.0 0.0 0.0 34.25627252547053" Properties=species:S:1:pos:R:3:initial_magmoms:R:1 pbc="T T T"
Si       2.02048128      -1.09661022      -0.23568329       0.00000000
Si      -0.28416276       0.72695754       2.17852887       0.00000000
Si       0.48130434       1.82876427      -1.34798508       0.00000000
Si      -1.23416298      -1.79756892      -0.81923922       0.00000000
Si       1.07450469      -1.10278413       2.88509914       0.00000000
Si      -0.06700077      -1.87742250      -2.86194189       0.00000000
Si      -2.55502134       0.24423597       2.36567099       0.00000000
Si      -0.65722005       3.44411325      -0.13884075       0.00000000
Si       2.17249956      -1.20226716      -2.61002112       0.00000000
Si       0.31820886       3.05548272       2.07349908       0.00000000
