10
Lattice="16.28999089631971 0.0 0.0 0.0 16.28999089631971 0.0 0.0 0.0 34.25627252547053" Properties=species:S:1:pos:R:3:initial_magmoms:R:1 pbc="T T T"
Si      -1.13852439       1.61534898       1.20914433       0.00000000
Si      -0.48130434      -1.82876427       1.34798508       0.00000000
Si      -0.20569383      -0.23530905      -2.36272495       0.00000000
Si       2.19322044       0.94982103       0.45160069       0.00000000
Si       1.50928479       2.84457609      -0.84972731       0.00000000
Si       1.53917694      -2.92537449       1.11230179       0.00000000
Si      -0.81217053       3.38687019      -0.28672516       0.00000000
Si      -0.16309548       1.22671845       3.42148416       0.00000000
Si       1.87178616      -1.28967930      -2.88914138       0.00000000
Si       1.69119522      -3.03103143      -1.26203604       0.00000000
