10
Lattice="16.28999089631971 0.0 0.0 0.0 16.28999089631971 0.0 0.0 0.0 34.25627252547053" Properties=species:S:1:pos:R:3:initial_magmoms:R:1 pbc="T T T"
Si      -2.20993791      -0.82658066       0.13462723       0.00000000
Si       0.11341912       2.02950594      -1.20592424       0.00000000
Si       0.91815653      -2.06336375      -0.73034414       0.00000000
Si       1.82761094       1.13078664       1.03402616       0.00000000
Si      -1.29663906      -2.34350288       1.75169547       0.00000000
Si      -0.04832266       1.32310638      -3.41329690       0.00000000
Si      -3.09443604       1.64915073       1.07739463       0.00000000
Si       3.66901625      -0.36904018       0.55697305       0.00000000
Si      -1.93098795       3.16456056      -0.62894552       0.00000000
Si      -2.86785843      -1.19681720      -2.12255409       0.00000000
