10
Lattice="16.28999089631971 0.0 0.0 0.0 16.28999089631971 0.0 0.0 0.0 34.25627252547053" Properties=species:S:1:pos:R:3:initial_magmoms:R:1 pbc="T T T"
Si       1.37880189      -1.32908481       1.31846986       0.00000000
Si      -1.33138170       1.39349547       1.31030316       0.00000000
Si       1.80613746       0.81601497      -1.26978721       0.00000000
Si      -1.11842253      -1.62546507      -1.32812705       0.00000000
Si       2.63301786       2.63090016       0.02035166       0.00000000
Si       0.66137400      -3.46424769      -1.34689162       0.00000000
Si       0.02715543      -2.68511328       2.65430423       0.00000000
Si       2.61684189      -2.72479572      -0.05512180       0.00000000
Si      -2.69135235       0.03003876       2.65194054       0.00000000
Si      -2.65706190       2.68566714      -0.09464328       0.00000000
