10
Lattice="16.28999089631971 0.0 0.0 0.0 16.28999089631971 0.0 0.0 0.0 34.25627252547053" Properties=species:S:1:pos:R:3:initial_magmoms:R:1 pbc="T T T"
Si       1.35697329      -1.35708732      -1.35689171       0.00000000
Si       1.35681039       1.35786924       1.35716576       0.00000000
Si      -1.35835794       1.35791811      -1.35699448       0.00000000
Si      -1.35858600      -1.35806472       1.35743981       0.00000000
Si       0.00208512       2.71464705       2.71090590       0.00000000
Si      -0.00078192      -2.71350675      -2.71443430       0.00000000
Si       2.71375110       0.00153126      -2.71436578       0.00000000
Si       2.71451673      -2.71420722      -0.00013703       0.00000000
Si       0.00107514      -2.71257822       2.71614711       0.00000000
Si      -2.71259451      -0.00342090       2.71635265       0.00000000
