10
Lattice="16.28999089631971 0.0 0.0 0.0 16.28999089631971 0.0 0.0 0.0 34.25627252547053" Properties=species:S:1:pos:R:3:initial_magmoms:R:1 pbc="T T T"
Si       1.35586557      -1.35751086      -1.36377723       0.00000000
Si      -1.36151820       1.35916171      -1.36388000       0.00000000
Si      -1.37756385      -1.33894026       1.38378290       0.00000000
Si       1.35676152       1.36587807       1.38672894       0.00000000
Si       2.71445157       2.71590857      -0.00280902       0.00000000
Si      -2.71790505      -2.71283886      -0.00369968       0.00000000
Si       2.71787247      -2.71467963      -0.00667998       0.00000000
Si      -2.71720458       2.71628324      -0.00894089       0.00000000
Si       2.71345788       0.00056595      -2.72108002       0.00000000
Si      -0.00171045      -2.71399545      -2.72073745       0.00000000
