10
Lattice="16.28999089631971 0.0 0.0 0.0 16.28999089631971 0.0 0.0 0.0 34.25627252547053" Properties=species:S:1:pos:R:3:initial_magmoms:R:1 pbc="T T T"
Si      -0.41515065      -1.03790106      -2.18726422       0.00000000
Si       0.47055294       2.50325172       1.01658971       0.00000000
Si       2.37767211      -1.43317791      -0.51411843       0.00000000
Si       0.51443820      -0.51047973       2.91020900       0.00000000
Si       0.81283842       3.05546643      -1.22342920       0.00000000
Si       1.54131093       1.37313297      -2.73796837       0.00000000
Si       1.82073330       1.41521004       2.65205359       0.00000000
Si      -3.29347962      -1.78289163       0.79628750       0.00000000
Si      -1.70696394       0.17969499       3.61657374       0.00000000
Si      -0.18244800       0.38830473      -4.09256491       0.00000000
