10
Lattice="16.28999089631971 0.0 0.0 0.0 16.28999089631971 0.0 0.0 0.0 34.25627252547053" Properties=species:S:1:pos:R:3:initial_magmoms:R:1 pbc="T T T"
Si       1.29685063      -1.35076680       1.47250670       0.00000000
Si      -1.42008075       1.36308204       1.45179192       0.00000000
Si      -1.04580171      -1.73781720      -1.36960906       0.00000000
Si       1.71444824       1.15233831      -1.34460197       0.00000000
Si       3.13034246      -0.85299327      -1.59484418       0.00000000
Si       2.55349401      -2.68610045      -0.05407356       0.00000000
Si      -2.76486912      -2.68923302       0.05454972       0.00000000
Si       2.76099114       2.71339272       0.03945982       0.00000000
Si       2.65216091       0.00151497       2.84437526       0.00000000
Si      -2.90509344       2.62770732       0.00657378       0.00000000
