10
Lattice="16.28999089631971 0.0 0.0 0.0 16.28999089631971 0.0 0.0 0.0 34.25627252547053" Properties=species:S:1:pos:R:3:initial_magmoms:R:1 pbc="T T T"
Si       1.35769005       1.35003049      -1.38953796       0.00000000
Si      -1.35676152      -1.36587807      -1.38672894       0.00000000
Si      -1.41727887       1.36420279       1.46000315       0.00000000
Si       1.37529954      -1.47262644       1.39402553       0.00000000
Si       2.70941796       2.70465802      -0.00729659       0.00000000
Si      -2.72940579       2.69130022      -0.02911785       0.00000000
Si      -2.73432537      -2.70481833      -0.00294604       0.00000000
Si      -0.00237834       2.70767167      -2.74930720       0.00000000
Si       2.71441899      -0.00756182      -2.75026638       0.00000000
Si      -2.71827972      -0.00671637      -2.75060894       0.00000000
