10
Lattice="16.28999089631971 0.0 0.0 0.0 16.28999089631971 0.0 0.0 0.0 34.25627252547053" Properties=species:S:1:pos:R:3:initial_magmoms:R:1 pbc="T T T"
Si      -1.35172791      -1.35462753      -1.38224137       0.00000000
Si       1.36234927       1.36420605      -1.38371439       0.00000000
Si       1.44586035      -1.38570885       1.34329197       0.00000000
Si      -1.44607959       1.38386808       1.40145915       0.00000000
Si      -2.70941796      -2.70465802       0.00729659       0.00000000
Si       2.70077679       2.71353933      -0.02545242       0.00000000
Si      -2.71826343       2.72969901      -0.03035107       0.00000000
Si       2.74115155      -2.70720741      -0.03963453       0.00000000
Si      -2.71179630       0.00301365      -2.74201061       0.00000000
Si       0.00500103      -2.71221984      -2.74296979       0.00000000
