10
Lattice="16.28999089631971 0.0 0.0 0.0 16.28999089631971 0.0 0.0 0.0 34.25627252547053" Properties=species:S:1:pos:R:3:initial_magmoms:R:1 pbc="T T T"
Si       0.06203232       0.84934594       2.20703010       0.00000000
Si       0.76928778       1.98008534      -1.12966973       0.00000000
Si       1.78094727      -1.63301127       0.01956034       0.00000000
Si      -2.01069099      -0.81149028      -1.07163957       0.00000000
Si      -0.65705715      -2.08587327      -2.48782893       0.00000000
Si       2.06457898       0.65858678      -2.51259623       0.00000000
Si       0.66729495      -3.54102639      -0.92149425       0.00000000
Si       3.48724007      -0.64329324      -1.16700909       0.00000000
Si      -0.16560414       3.31917221       1.78105312       0.00000000
Si      -1.61015247      -0.51752027       3.40140997       0.00000000
