10
Lattice="16.28999089631971 0.0 0.0 0.0 16.28999089631971 0.0 0.0 0.0 34.25627252547053" Properties=species:S:1:pos:R:3:initial_magmoms:R:1 pbc="T T T"
Si       2.04925172       0.13251915       1.12651815       0.00000000
Si      -0.75595374       2.05710120      -0.90159134       0.00000000
Si      -1.53590265      -0.00715131       1.81479556       0.00000000
Si       0.40764096      -1.08476739      -2.11299658       0.00000000
Si      -3.32491932      -0.57249576       0.44238575       0.00000000
Si       1.10431541       3.32416998      -0.33828088       0.00000000
Si       3.00098357       1.93583844      -0.01377103       0.00000000
Si      -1.54267929      -2.27895471      -2.45925918       0.00000000
Si      -1.42408809      -2.20718097       2.59577050       0.00000000
Si      -3.17290104      -0.67815270      -1.93195208       0.00000000
