10
Lattice="16.28999089631971 0.0 0.0 0.0 16.28999089631971 0.0 0.0 0.0 34.25627252547053" Properties=species:S:1:pos:R:3:initial_magmoms:R:1 pbc="T T T"
Si      -1.56081006       1.36892363       1.07804550       0.00000000
Si      -0.95548995      -1.92508445       1.02200221       0.00000000
Si      -1.06381845      -0.22925715      -2.15328198       0.00000000
Si       2.43316304      -0.00511669       0.36811811       0.00000000
Si       1.02187709      -1.11996749      -3.12067966       0.00000000
Si      -3.52417860       0.82524814      -0.11225787       0.00000000
Si       2.56810940       0.36706420       2.72265581       0.00000000
Si      -3.38976981      -1.16212601      -1.48113928       0.00000000
Si      -0.13672197       3.57610460      -1.51772500       0.00000000
Si      -1.22098437       1.61346911       3.33687112       0.00000000
