10
Lattice="16.28999089631971 0.0 0.0 0.0 16.28999089631971 0.0 0.0 0.0 34.25627252547053" Properties=species:S:1:pos:R:3:initial_magmoms:R:1 pbc="T T T"
Si       0.33982569       0.24454548       2.25882562       0.00000000
Si      -0.11181456       2.20002966      -0.78097494       0.00000000
Si       1.56081006      -1.36892363      -1.07804550       0.00000000
Si      -1.96336854      -0.54367549      -1.19030337       0.00000000
Si      -1.90083123       1.63468521      -2.15338475       0.00000000
Si       0.60532011      -3.29400809      -0.05604329       0.00000000
Si      -2.84680782       1.62851130       0.96739768       0.00000000
Si       2.65091798       0.78190371       2.15033594       0.00000000
Si       0.49699161      -1.59818079      -3.23132748       0.00000000
Si       1.42408809       2.20718097      -2.59577050       0.00000000
