10
Lattice="16.28999089631971 0.0 0.0 0.0 16.28999089631971 0.0 0.0 0.0 34.25627252547053" Properties=species:S:1:pos:R:3:initial_magmoms:R:1 pbc="T T T"
Si       1.35731428      -1.35694071       1.35764535       0.00000000
Si      -1.35806472       1.35853713       1.35740556       0.00000000
Si       1.35795213       1.35837423      -1.35809068       0.00000000
Si      -1.35985662      -1.35855342      -1.35730279       0.00000000
Si       2.71429749      -2.71384558       0.00000000       0.00000000
Si       0.00320913      -2.71365010      -2.71587306       0.00000000
Si      -0.00079821       2.71472850       2.71501665       0.00000000
Si       0.00008145      -2.71471221       2.71508517       0.00000000
Si       2.71450274      -0.00055386       2.71542773       0.00000000
Si      -2.71541268      -2.71460958       0.00058236       0.00000000
