10
Lattice="16.28999089631971 0.0 0.0 0.0 16.28999089631971 0.0 0.0 0.0 34.25627252547053" Properties=species:S:1:pos:R:3:initial_magmoms:R:1 pbc="T T T"
Si       1.35822790      -1.35301482       1.35932391       0.00000000
Si      -1.35726651      -1.35619137      -1.35761110       0.00000000
Si       1.35762534       1.35827649      -1.35730279       0.00000000
Si      -1.35954711       1.35897696       1.35970073       0.00000000
Si       2.69665542      -0.00368154       2.71758587       0.00000000
Si      -2.71480995       0.00092853      -2.71436578       0.00000000
Si       0.00079821      -2.71472850      -2.71501665       0.00000000
Si      -0.00001629       2.71617831      -2.71388619       0.00000000
Si      -2.71591767      -2.71420722       0.00102769       0.00000000
Si       2.71530095      -2.71528236       0.00041108       0.00000000
