10
Lattice="16.28999089631971 0.0 0.0 0.0 16.28999089631971 0.0 0.0 0.0 34.25627252547053" Properties=species:S:1:pos:R:3:initial_magmoms:R:1 pbc="T T T"
Si       1.91492208      -1.24559856      -0.68327599       0.00000000
Si      -0.68393565       1.89475506      -1.30132801       0.00000000
Si       0.99536787       1.14261318       1.88111574       0.00000000
Si      -2.19322044      -0.94982103      -0.45160069       0.00000000
Si      -3.33174483       0.66552795       0.75754363       0.00000000
Si       1.82922039      -1.29189474      -2.99859024       0.00000000
Si      -0.08346996       0.27100044       3.75479787       0.00000000
Si       3.77519123       0.02147022      -0.11996553       0.00000000
Si      -2.35631592       0.27689742       2.96988346       0.00000000
Si      -2.39891427      -1.18513008      -2.81432564       0.00000000
