10
Lattice="16.28999089631971 0.0 0.0 0.0 16.28999089631971 0.0 0.0 0.0 34.25627252547053" Properties=species:S:1:pos:R:3:initial_magmoms:R:1 pbc="T T T"
Si      -1.90130364       0.75305412       1.08626701       0.00000000
Si       1.88491364       0.31493457       1.33510471       0.00000000
Si       0.10775835      -2.15163207      -0.93547081       0.00000000
Si       0.32780367       1.82203650      -1.51621773       0.00000000
Si       3.36433039      -0.05460408      -0.54186602       0.00000000
Si       2.23791273       0.95265549      -2.56788588       0.00000000
Si      -1.31119839       3.10446675       1.09061756       0.00000000
Si       0.81505386       3.57039333       0.05967446       0.00000000
Si      -1.05568974      -3.66704190       0.77086933       0.00000000
Si      -1.20532968      -2.48425758      -2.85978374       0.00000000
