10
Lattice="16.28999089631971 0.0 0.0 0.0 16.28999089631971 0.0 0.0 0.0 34.25627252547053" Properties=species:S:1:pos:R:3:initial_magmoms:R:1 pbc="T T T"
Si      -1.36006839      -1.35355239       1.37747632       0.00000000
Si       1.35714501       1.36379880       1.38323138       0.00000000
Si      -1.48374207       1.32318783      -1.32794172       0.00000000
Si       1.46572437      -1.36021500      -1.42254047       0.00000000
Si       2.70398429       2.68933239       0.00569682       0.00000000
Si      -2.71534752      -2.71052568      -0.01020837       0.00000000
Si      -2.72178207       2.71889874       0.04564993       0.00000000
Si      -0.00229545      -2.70930393       2.73758812       0.00000000
Si       2.73249179      -2.71697652       0.00248358       0.00000000
Si       2.71113560       0.00545715       2.73906114       0.00000000
