10
Lattice="16.28999089631971 0.0 0.0 0.0 16.28999089631971 0.0 0.0 0.0 34.25627252547053" Properties=species:S:1:pos:R:3:initial_magmoms:R:1 pbc="T T T"
Si       1.35632169       1.35778779       1.35627510       0.00000000
Si       1.35697329      -1.35741312      -1.35689171       0.00000000
Si      -1.35798327      -1.35770634       1.35668618       0.00000000
Si      -1.35752715       1.35746199      -1.35740556       0.00000000
Si      -2.71270854      -0.00092853       2.71042631       0.00000000
Si       0.00456120       2.71396287       2.71392045       0.00000000
Si      -0.00026064       2.71450044      -2.71402322       0.00000000
Si      -0.00104256      -2.71404432      -2.71484537       0.00000000
Si       2.71445011       2.71466334      -0.00027405       0.00000000
Si       2.71396765      -0.00127062      -2.71518793       0.00000000
