10
Lattice="16.28999089631971 0.0 0.0 0.0 16.28999089631971 0.0 0.0 0.0 34.25627252547053" Properties=species:S:1:pos:R:3:initial_magmoms:R:1 pbc="T T T"
Si      -0.13216077      -0.98132589       2.16253118       0.00000000
Si      -0.34694442       2.25697950       0.67988462       0.00000000
Si       1.99171544      -0.89015076      -1.12696348       0.00000000
Si      -1.99402632      -0.41630724      -1.50402249       0.00000000
Si       0.76302360      -3.13119864       1.90286849       0.00000000
Si      -1.99503630      -2.88445401      -1.42687732       0.00000000
Si      -1.20922299       0.49625856      -3.60485808       0.00000000
Si      -2.55096513       2.43208071       1.66214953       0.00000000
Si      -2.36960856      -1.08222615       2.90431692       0.00000000
Si       1.75822435      -3.30822207      -1.35730279       0.00000000
