10
Lattice="16.28999089631971 0.0 0.0 0.0 16.28999089631971 0.0 0.0 0.0 34.25627252547053" Properties=species:S:1:pos:R:3:initial_magmoms:R:1 pbc="T T T"
Si      -1.48344885       1.14707664       1.35175327       0.00000000
Si      -0.42992568       0.29970342      -2.28616214       0.00000000
Si       0.11284083      -2.39425533       0.30375054       0.00000000
Si       1.74462642       0.22012677       1.80085325       0.00000000
Si       1.83114261       1.93789098       0.34026775       0.00000000
Si      -0.14287959       0.30356415       3.23300604       0.00000000
Si       1.80752211       0.40060368      -3.02794788       0.00000000
Si      -1.56646269      -1.64211345      -2.87869321       0.00000000
Si      -1.29134088       3.47578101       0.76521704       0.00000000
Si       3.27723753       1.40265045      -1.42485620       0.00000000
