10
Lattice="16.28999089631971 0.0 0.0 0.0 16.28999089631971 0.0 0.0 0.0 34.25627252547053" Properties=species:S:1:pos:R:3:initial_magmoms:R:1 pbc="T T T"
Si       1.55305995      -0.77033781       1.58075658       0.00000000
Si       0.79433298       1.86675255      -1.25515053       0.00000000
Si      -0.48725019      -1.74835683      -1.57589219       0.00000000
Si      -2.12625225      -0.46592658       1.03094310       0.00000000
Si       0.58259556       0.94631868       3.20104492       0.00000000
Si       1.06985978      -3.25545876       1.27543025       0.00000000
Si      -0.81505386      -3.57039333      -0.05967446       0.00000000
Si      -1.10755710       2.58159033      -2.41917932       0.00000000
Si      -2.73652452       2.63278980      -0.69238817       0.00000000
Si       1.47267206       3.56399136       0.29258299       0.00000000
