10
Lattice="16.28999089631971 0.0 0.0 0.0 16.28999089631971 0.0 0.0 0.0 34.25627252547053" Properties=species:S:1:pos:R:3:initial_magmoms:R:1 pbc="T T T"
Si      -1.14305301       0.49386393      -1.95312247       0.00000000
Si      -1.24638048       1.08740637       1.69685115       0.00000000
Si      -0.20882151      -2.44501497       0.30549761       0.00000000
Si       2.13816024       1.25356437      -0.16761604       0.00000000
Si       3.30937866      -0.63724851      -0.83229086       0.00000000
Si       2.30900976       1.50091173       2.12341050       0.00000000
Si       1.96525818      -1.82855250      -2.36471181       0.00000000
Si      -0.73897956       2.81342961      -2.12433542       0.00000000
Si      -2.19811233      -0.71591292       2.83714033       0.00000000
Si      -0.71213364      -2.52288117       2.60203940       0.00000000
