10
Lattice="16.28999089631971 0.0 0.0 0.0 16.28999089631971 0.0 0.0 0.0 34.25627252547053" Properties=species:S:1:pos:R:3:initial_magmoms:R:1 pbc="T T T"
Si       1.35726651       1.35703845      -1.35661766       0.00000000
Si      -1.35749457       1.35718506       1.35726853       0.00000000
Si       1.35752715      -1.35746199       1.35740556       0.00000000
Si      -1.35782037      -1.35883035      -1.35812494       0.00000000
Si       2.71296918       0.00006516      -2.71227615       0.00000000
Si       2.71384884       0.00032580       2.71368066       0.00000000
Si       0.00008145       2.71366965       2.71422876       0.00000000
Si      -2.71441899      -0.00169416       2.71450281       0.00000000
Si      -0.00127062       2.71813311      -2.71097441       0.00000000
Si      -0.00045612      -2.71516833       2.71409173       0.00000000
