10
Lattice="16.28999089631971 0.0 0.0 0.0 16.28999089631971 0.0 0.0 0.0 34.25627252547053" Properties=species:S:1:pos:R:3:initial_magmoms:R:1 pbc="T T T"
Si      -1.35679410       1.35690393       1.35692597       0.00000000
Si       1.35684586       1.35695905      -1.35757684       0.00000000
Si      -1.35720135      -1.35780408      -1.35661766       0.00000000
Si       1.35750940      -1.35764118       1.35713151       0.00000000
Si      -2.71573848       0.00329058      -2.71097441       0.00000000
Si      -0.00149868      -2.71477737      -2.71227615       0.00000000
Si      -0.00061902      -2.71451673       2.71368066       0.00000000
Si      -2.71438641      -0.00117288       2.71422876       0.00000000
Si       2.71482691       0.00087966       2.71385194       0.00000000
Si       0.00092853       2.71465424       2.71446855       0.00000000
