10
Lattice="16.28999089631971 0.0 0.0 0.0 16.28999089631971 0.0 0.0 0.0 34.25627252547053" Properties=species:S:1:pos:R:3:initial_magmoms:R:1 pbc="T T T"
Si      -1.30629510      -1.92568977       0.25815541       0.00000000
Si      -1.35018036       1.08804168      -1.63546388       0.00000000
Si       2.20402071      -0.17510121      -0.98226491       0.00000000
Si      -0.85341681       0.89818173       2.20586539       0.00000000
Si       1.47253455       1.83105059       1.53372269       0.00000000
Si       1.16592417       1.91070364      -2.22443230       0.00000000
Si       0.85695174       3.35745764      -0.28997951       0.00000000
Si      -1.82073330      -1.41521004      -2.65205359       0.00000000
Si      -3.21629760       1.03602771       1.54170441       0.00000000
Si       3.55823009       0.94034025       0.56632501       0.00000000
