10
Lattice="16.28999089631971 0.0 0.0 0.0 16.28999089631971 0.0 0.0 0.0 34.25627252547053" Properties=species:S:1:pos:R:3:initial_magmoms:R:1 pbc="T T T"
Si       1.35420938       1.11544146       1.54858992       0.00000000
Si       0.34694442      -2.25697950      -0.67988462       0.00000000
Si      -2.20402071       0.17510121       0.98226491       0.00000000
Si      -1.03809654       2.08580485      -1.24216739       0.00000000
Si      -0.73148616       2.00615180       2.51598760       0.00000000
Si       0.21478365      -3.23830539       1.48264656       0.00000000
Si       2.97381185      -0.42112908       2.33497735       0.00000000
Si      -1.64708190      -2.67328674      -2.18390711       0.00000000
Si      -3.55420107       1.26314289      -0.65319897       0.00000000
Si      -1.34706897       3.53255885       0.69228540       0.00000000
