10
Lattice="16.28999089631971 0.0 0.0 0.0 16.28999089631971 0.0 0.0 0.0 34.25627252547053" Properties=species:S:1:pos:R:3:initial_magmoms:R:1 pbc="T T T"
Si       0.86156181      -2.01134259      -0.84040960       0.00000000
Si      -2.26092168      -0.47345256      -0.41546031       0.00000000
Si       0.38221227      -0.11435580       2.34073241       0.00000000
Si       0.95548995       1.92508445      -1.02200221       0.00000000
Si      -0.60532011       3.29400809       0.05604329       0.00000000
Si      -2.43427986       0.76295844      -2.50314149       0.00000000
Si      -0.10832850       1.69582730      -3.17528419       0.00000000
Si      -2.45302965      -2.80215693       0.17107592       0.00000000
Si       2.67276613       0.27321588       2.59707224       0.00000000
Si       0.77504562      -3.72910680       0.62017590       0.00000000
