10
Lattice="16.28999089631971 0.0 0.0 0.0 16.28999089631971 0.0 0.0 0.0 34.25627252547053" Properties=species:S:1:pos:R:3:initial_magmoms:R:1 pbc="T T T"
Si      -0.40407345      -2.31956568       0.17121295       0.00000000
Si       1.80757098      -0.47957760      -1.48250953       0.00000000
Si      -0.25203888       1.73236005       1.65002280       0.00000000
Si      -1.59882603       1.25141409      -1.35377439       0.00000000
Si       2.26745397       1.76800257      -0.50027888       0.00000000
Si      -2.59402679       1.42843752       1.90639689       0.00000000
Si       0.73897956      -2.81342961       2.12433542       0.00000000
Si       0.51215760       3.58171488       0.31005370       0.00000000
Si      -3.60340406       0.49156704      -0.09588336       0.00000000
Si       3.50410932       0.72293391       1.27097693       0.00000000
