10
Lattice="16.28999089631971 0.0 0.0 0.0 16.28999089631971 0.0 0.0 0.0 34.25627252547053" Properties=species:S:1:pos:R:3:initial_magmoms:R:1 pbc="T T T"
Si      -1.88491364      -0.31493457      -1.33510471       0.00000000
Si       1.47941675      -0.36953865      -1.87697073       0.00000000
Si       0.36290178      -1.57623669       1.82681952       0.00000000
Si       0.48320017       2.48512095       0.30532633       0.00000000
Si       1.40944468      -0.01518228       3.21088131       0.00000000
Si      -1.55710997       1.50710193      -2.85132244       0.00000000
Si       3.42286425       0.73679670      -0.98805422       0.00000000
Si      -1.06985978       3.25545876      -1.27543025       0.00000000
Si       3.30902973       0.68359356       1.65670278       0.00000000
Si      -1.77715529      -2.46656664      -2.27057552       0.00000000
