10
Lattice="16.28999089631971 0.0 0.0 0.0 16.28999089631971 0.0 0.0 0.0 34.25627252547053" Properties=species:S:1:pos:R:3:initial_magmoms:R:1 pbc="T T T"
Si       0.68031927       1.87779717       1.47924975       0.00000000
Si       1.95877476      -1.62940725       0.02723375       0.00000000
Si      -1.89958505      -0.69877584       1.55417853       0.00000000
Si       0.11383452       0.05320314      -2.64475700       0.00000000
Si      -0.49969575       2.34326763      -2.04801240       0.00000000
Si      -2.82582956       1.80152739      -1.35137645       0.00000000
Si      -0.63281763      -2.05553736       2.97920258       0.00000000
Si       2.06382897       0.67236975       2.98977408       0.00000000
Si      -2.94612795      -2.25983025       0.17011674       0.00000000
Si       1.02174138      -3.22517565       1.57238918       0.00000000
