10
Lattice="16.28999089631971 0.0 0.0 0.0 16.28999089631971 0.0 0.0 0.0 34.25627252547053" Properties=species:S:1:pos:R:3:initial_magmoms:R:1 pbc="T T T"
Si      -1.87749255       0.08777052      -1.43348878       0.00000000
Si      -0.76419648      -1.84935483       1.33996910       0.00000000
Si       0.55361565       2.05464141       1.26744854       0.00000000
Si       1.75529637      -1.81371231      -0.81033258       0.00000000
Si      -2.11098363      -2.33030079      -1.66382809       0.00000000
Si      -0.51215760      -3.58171488      -0.31005370       0.00000000
Si       3.10979358      -0.42885054      -2.31826028       0.00000000
Si       0.31568391      -1.83565494       3.48763305       0.00000000
Si      -3.86920799       0.97792128      -0.30652530       0.00000000
Si      -1.24234056       2.81377170       2.70833668       0.00000000
