10
Lattice="16.28999089631971 0.0 0.0 0.0 16.28999089631971 0.0 0.0 0.0 34.25627252547053" Properties=species:S:1:pos:R:3:initial_magmoms:R:1 pbc="T T T"
Si      -1.29060946      -1.33234281       1.48713413       0.00000000
Si      -1.57461584       1.23686712      -1.29276394       0.00000000
Si       1.27272141      -1.59742998      -1.26422844       0.00000000
Si       1.09069695       1.88074566       1.11449419       0.00000000
Si      -3.02071076       1.77210765       0.47236001       0.00000000
Si      -3.10722695       0.05434344       1.93294551       0.00000000
Si      -0.28530306       3.05199666      -2.04352482       0.00000000
Si       0.19284102      -1.61112987      -3.41189239       0.00000000
Si       3.35443680       1.16458839       1.31088551       0.00000000
Si       1.46792448      -3.69528876      -0.17169253       0.00000000
