10
Lattice="16.28999089631971 0.0 0.0 0.0 16.28999089631971 0.0 0.0 0.0 34.25627252547053" Properties=species:S:1:pos:R:3:initial_magmoms:R:1 pbc="T T T"
Si       1.11365233       1.90801512       0.94105459       0.00000000
Si       1.37820356      -1.24986654      -1.54242379       0.00000000
Si      -1.32435210       1.45515312      -1.56633468       0.00000000
Si      -2.10162945      -0.82301967       1.28032890       0.00000000
Si      -0.66729495       3.54102639       0.92149425       0.00000000
Si       2.76345140      -2.61917136       0.00739936       0.00000000
Si      -2.67798594       2.72953611      -0.15014533       0.00000000
Si      -2.78157405      -2.62625751      -0.17912615       0.00000000
Si       0.01863986      -2.59357977      -2.93535312       0.00000000
Si      -2.69217453       0.12160485      -2.93757978       0.00000000
