10
Lattice="10.86 0.0 0.0 0.0 10.86 0.0 0.0 0.0 10.86" Properties=species:S:1:pos:R:3:initial_magmoms:R:1 pbc="T T T"
Si      -1.35750000       1.35750000      -1.35750000       0.00000000
Si      -1.35750000      -1.35750000       1.35750000       0.00000000
Si       1.35750000      -1.35750000      -1.35750000       0.00000000
Si       1.35750000       1.35750000       1.35750000       0.00000000
Si       2.50621650      -0.06830940       2.49084960       0.00000000
Si       2.54067528      -2.54786460       0.18711780       0.00000000
Si      -2.61329610       2.58804660       0.14334114       0.00000000
Si       2.60101344      -0.13085214      -2.61354588       0.00000000
Si      -2.50066704      -2.74329030       0.08293782       0.00000000
Si       2.58585288       2.73965220       0.11749434       0.00000000
