10
Lattice="16.28999089631971 0.0 0.0 0.0 16.28999089631971 0.0 0.0 0.0 34.32429715621058" Properties=species:S:1:pos:R:3:initial_magmoms:R:1 pbc="T T T"
Si       0.56931921       0.92955627      -2.05139277       0.00000000
Si       1.06249896      -2.06376381      -0.17440185       0.00000000
Si      -2.29765400       0.01764207       0.52588285       0.00000000
Si       1.45961658       1.09356399       1.53340451       0.00000000
Si      -2.62015528       2.38089753       0.74981469       0.00000000
Si      -2.22132232      -0.70332075       2.79465151       0.00000000
Si       3.13004205      -1.64807559       0.98160680       0.00000000
Si       1.02405456       3.33058824       1.42902426       0.00000000
Si       0.07151310      -3.63410352       1.24082404       0.00000000
Si       0.10147041       3.22638111      -2.10421789       0.00000000
