10
Lattice="16.28999089631971 0.0 0.0 0.0 16.28999089631971 0.0 0.0 0.0 34.32429715621058" Properties=species:S:1:pos:R:3:initial_magmoms:R:1 pbc="T T T"
Si       2.19294351      -0.09334170      -0.75369334       0.00000000
Si      -0.69292773       2.22179310      -0.00954216       0.00000000
Si      -1.25019397      -1.05546168      -1.68292123       0.00000000
Si      -0.29952423      -1.21202487       2.02427656       0.00000000
Si       0.14916753      -3.45558141       0.90365628       0.00000000
Si      -0.44434233      -3.23693703      -1.45524804       0.00000000
Si       3.38336784       1.46974896       0.53614582       0.00000000
Si      -3.02675435       2.13175827       0.43904233       0.00000000
Si      -0.22007790       3.06023940      -2.18247733       0.00000000
Si      -2.61680021      -1.05474492       2.51120131       0.00000000
