10
Lattice="16.28999089631971 0.0 0.0 0.0 16.28999089631971 0.0 0.0 0.0 34.32429715621058" Properties=species:S:1:pos:R:3:initial_magmoms:R:1 pbc="T T T"
Si       1.29578805      -1.42307878       1.34746969       0.00000000
Si      -1.34900748      -1.36233337      -1.36003239       0.00000000
Si       1.36534635       1.34956786      -1.36065022       0.00000000
Si      -1.31774697       1.35140863       1.49437776       0.00000000
Si       2.03802561       0.39963280       2.65498587       0.00000000
Si      -2.14938405      -0.55785268       2.59474669       0.00000000
Si      -0.61431219      -2.46896194       2.55705859       0.00000000
Si       0.44108433       2.32874347       2.80834691       0.00000000
Si      -2.70708849      -0.00732561      -2.71591153       0.00000000
Si       0.00840564       2.71022269      -2.71512207       0.00000000
