10
Lattice="16.28999089631971 0.0 0.0 0.0 16.28999089631971 0.0 0.0 0.0 34.32429715621058" Properties=species:S:1:pos:R:3:initial_magmoms:R:1 pbc="T T T"
Si      -0.25032843      -0.00361801       2.30831027       0.00000000
Si       0.83163708       1.90926131      -1.10036893       0.00000000
Si      -1.86717609      -0.83140806      -1.25534322       0.00000000
Si       1.53507186      -1.91110926      -0.03768810       0.00000000
Si      -2.15739873      -1.51751028       2.01075278       0.00000000
Si       2.14938405       0.55785268      -2.59474669       0.00000000
Si      -0.55904022      -2.17466517      -2.61355642       0.00000000
Si       3.44517210      -0.86522610      -1.24727701       0.00000000
Si       1.84666698      -0.93362781       3.20712682       0.00000000
Si      -2.67436188      -2.72754777       0.00013730       0.00000000
