10
Lattice="16.28999089631971 0.0 0.0 0.0 16.28999089631971 0.0 0.0 0.0 34.32429715621058" Properties=species:S:1:pos:R:3:initial_magmoms:R:1 pbc="T T T"
Si       2.27496366       0.58949600      -0.17409293       0.00000000
Si      -1.20798495       1.86765339      -0.88268412       0.00000000
Si      -0.20494449      -0.57743393       2.38320593       0.00000000
Si      -0.10070478      -1.63874372      -1.84970308       0.00000000
Si       2.18848005       1.23229452      -2.50845536       0.00000000
Si       3.10906053      -1.71398723       0.05296242       0.00000000
Si      -0.03412755       2.16072678      -2.94262364       0.00000000
Si       2.50080822       2.60089887       1.13541406       0.00000000
Si       2.14887906      -2.40207683      -1.98222927       0.00000000
Si      -1.52352225      -3.34419269      -1.15686676       0.00000000
