10
Lattice="16.28999089631971 0.0 0.0 0.0 16.28999089631971 0.0 0.0 0.0 34.32429715621058" Properties=species:S:1:pos:R:3:initial_magmoms:R:1 pbc="T T T"
Si       0.65995677      -1.98809024      -1.01726976       0.00000000
Si       0.98121186       2.08445211      -0.39799045       0.00000000
Si       0.27484488      -0.81752994       2.33686810       0.00000000
Si      -2.16852643       0.77963940      -1.02262436       0.00000000
Si      -1.00022229       0.81995715       3.44626433       0.00000000
Si      -2.61011412       2.70249471       0.31732830       0.00000000
Si       3.71711736      -0.18516843       0.76790361       0.00000000
Si       3.31970652       1.78818588      -0.64725363       0.00000000
Si       2.54325996      -0.47824182       2.82784313       0.00000000
Si      -1.24711353      -3.50198252      -1.31482726       0.00000000
