10
Lattice="16.28999089631971 0.0 0.0 0.0 16.28999089631971 0.0 0.0 0.0 34.32429715621058" Properties=species:S:1:pos:R:3:initial_magmoms:R:1 pbc="T T T"
Si      -1.35733167      -1.35700587       1.35708050       0.00000000
Si       1.35817875       1.35705474       1.35721779       0.00000000
Si      -1.35822762       1.35586557      -1.35855644       0.00000000
Si       1.35852084      -1.35511623      -1.36061590       0.00000000
Si      -2.70917361      -0.00288333      -2.71604196       0.00000000
Si      -2.71437012      -0.00037467       2.71416099       0.00000000
Si      -2.71433754       2.71477737      -0.00164757       0.00000000
Si       0.00022806       2.71480995       2.71446991       0.00000000
Si      -2.71560816      -2.71378368      -0.00027459       0.00000000
Si       0.00011403      -2.71508688       2.71433261       0.00000000
