10
Lattice="16.28999089631971 0.0 0.0 0.0 16.28999089631971 0.0 0.0 0.0 34.32429715621058" Properties=species:S:1:pos:R:3:initial_magmoms:R:1 pbc="T T T"
Si      -2.17860831      -0.90279180       0.15545483       0.00000000
Si       0.81446742      -0.47223081      -2.17828976       0.00000000
Si      -0.64865151       2.29416957      -0.03130378       0.00000000
Si       1.06054416      -0.83235384       2.00103899       0.00000000
Si      -2.39922378      -0.13222593       2.43184349       0.00000000
Si      -0.33168069       0.28346229       3.58785214       0.00000000
Si       0.63760689      -2.80559412      -2.19970814       0.00000000
Si       0.91916325       3.32465868       1.39820103       0.00000000
Si      -0.65704086       0.81502128      -3.58112457       0.00000000
Si       1.01708244      -3.19948632       1.76444148       0.00000000
