10
Lattice="16.28999089631971 0.0 0.0 0.0 16.28999089631971 0.0 0.0 0.0 34.32429715621058" Properties=species:S:1:pos:R:3:initial_magmoms:R:1 pbc="T T T"
Si      -1.78058008       0.73564011      -1.30943834       0.00000000
Si       0.25417287      -2.33014508      -0.29597858       0.00000000
Si       2.14048971       0.82290564      -0.67509065       0.00000000
Si      -0.33953899       0.24076620       2.36885837       0.00000000
Si       2.46943368      -2.41193717      -1.16204973       0.00000000
Si       3.55377753      -0.88404364       0.22376022       0.00000000
Si      -0.21867696      -3.16859138       1.87695659       0.00000000
Si       0.91238661      -1.55587419       3.24625654       0.00000000
Si      -2.37277601       2.87762850      -0.62525175       0.00000000
Si       2.62407465       2.68203447       0.62641877       0.00000000
