10
Lattice="16.28999089631971 0.0 0.0 0.0 16.28999089631971 0.0 0.0 0.0 34.32429715621058" Properties=species:S:1:pos:R:3:initial_magmoms:R:1 pbc="T T T"
Si      -1.06249896       2.06376381       0.17440185       0.00000000
Si      -0.99098586      -1.57033971       1.41522589       0.00000000
Si       2.06754309       0.41568822       1.15600865       0.00000000
Si       0.22061547      -0.77056587      -2.27638866       0.00000000
Si       2.39922378       0.13222593      -2.43184349       0.00000000
Si       3.45976794      -0.70012791      -0.43080449       0.00000000
Si      -0.49317975       2.99332008      -1.87699091       0.00000000
Si       1.11970944       0.14592582       3.40123083       0.00000000
Si       0.39711762       3.15732780       1.70780636       0.00000000
Si      -2.15430363      -3.21224139       0.18747942       0.00000000
