10
Lattice="16.28999089631971 0.0 0.0 0.0 16.28999089631971 0.0 0.0 0.0 34.32429715621058" Properties=species:S:1:pos:R:3:initial_magmoms:R:1 pbc="T T T"
Si      -1.69404597      -0.20416257      -1.61145800       0.00000000
Si       1.97159499      -0.87653232      -0.96677869       0.00000000
Si       0.53098884       2.33834805       0.02306594       0.00000000
Si      -0.97221978      -0.94188780       2.14698599       0.00000000
Si      -2.65443921       1.97247465      -1.11440758       0.00000000
Si       3.26718756      -0.95830812       1.15532216       0.00000000
Si      -2.51509455      -2.41562781       1.00666355       0.00000000
Si      -0.26606457      -3.59885196      -1.21312431       0.00000000
Si      -1.46401488       3.53556531       0.17543158       0.00000000
Si      -2.42968608      -2.53592946      -1.68563285       0.00000000
