10
Lattice="16.28999089631971 0.0 0.0 0.0 16.28999089631971 0.0 0.0 0.0 34.32429715621058" Properties=species:S:1:pos:R:3:initial_magmoms:R:1 pbc="T T T"
Si      -1.35601218       1.35832536      -1.36027266       0.00000000
Si       1.35923760      -1.36093176      -1.35900266       0.00000000
Si      -1.35553977      -1.36640520       1.36212617       0.00000000
Si       1.38261375       1.34633592       1.37832725       0.00000000
Si      -0.06646320       2.65320117       2.70372640       0.00000000
Si      -2.71125873       2.71394658      -0.00377567       0.00000000
Si      -2.71292031      -0.00105885      -2.71711288       0.00000000
Si      -2.71551042      -2.71463076      -0.00336378       0.00000000
Si       2.71881729      -2.71231758      -0.00072081       0.00000000
Si       0.00239463       2.71436024      -2.71776504       0.00000000
