10
Lattice="16.28999089631971 0.0 0.0 0.0 16.28999089631971 0.0 0.0 0.0 34.32429715621058" Properties=species:S:1:pos:R:3:initial_magmoms:R:1 pbc="T T T"
Si       1.35444834      -1.35594702       1.35690887       0.00000000
Si       1.35703845       1.35762489      -1.35684022       0.00000000
Si      -1.35755973      -1.35755973      -1.35714914       0.00000000
Si      -1.35663120       1.36111095       1.35817887       0.00000000
Si      -0.00071676       2.70244584       2.69771964       0.00000000
Si       2.71239903      -2.71541268      -0.00006865       0.00000000
Si      -0.00052128      -2.71419093      -2.71422964       0.00000000
Si       2.71498914      -0.00013032      -2.71409234       0.00000000
Si      -2.71477248       0.00022806      -2.71436694       0.00000000
Si      -2.71533286       2.71388142      -0.00024027       0.00000000
