10
Lattice="16.28999089631971 0.0 0.0 0.0 16.28999089631971 0.0 0.0 0.0 34.32429715621058" Properties=species:S:1:pos:R:3:initial_magmoms:R:1 pbc="T T T"
Si      -1.42281747      -1.70544897       0.69283633       0.00000000
Si       2.24958384      -0.76333311      -0.13252619       0.00000000
Si      -0.89358795       1.06653888      -1.97927738       0.00000000
Si       0.10070478       1.63874372       1.84970308       0.00000000
Si       2.81277801       0.69248790      -1.86058389       0.00000000
Si      -1.54860885      -1.01243979      -3.13727684       0.00000000
Si       2.37566844       2.22823972       1.67561015       0.00000000
Si      -3.59399754      -0.88510086       0.20745617       0.00000000
Si       1.10895804       1.94637222      -2.95419093       0.00000000
Si       2.28918483       2.87103824      -0.65875228       0.00000000
