10
Lattice="16.28999089631971 0.0 0.0 0.0 16.28999089631971 0.0 0.0 0.0 34.32429715621058" Properties=species:S:1:pos:R:3:initial_magmoms:R:1 pbc="T T T"
Si      -1.25192560       1.79664039      -0.87739817       0.00000000
Si       2.23946775      -0.09508636      -0.80542008       0.00000000
Si      -1.13106357      -1.61271719      -1.36929995       0.00000000
Si       1.91879910       0.10719797       2.79770638       0.00000000
Si      -0.19606644       3.42906129       0.43070152       0.00000000
Si       0.19709271       2.24790597       2.69380667       0.00000000
Si      -0.65821374      -0.77427089      -3.54223512       0.00000000
Si      -0.91238661       1.55587419      -3.24625654       0.00000000
Si       3.62473677      -0.25471924       1.14519649       0.00000000
Si       2.94523200      -2.36476133      -0.82361197       0.00000000
