10
Lattice="16.28999089631971 0.0 0.0 0.0 16.28999089631971 0.0 0.0 0.0 34.32429715621058" Properties=species:S:1:pos:R:3:initial_magmoms:R:1 pbc="T T T"
Si      -1.43715267       1.25455806       1.32804212       0.00000000
Si       1.34390871       1.35586557      -1.34671455       0.00000000
Si       1.25146296      -1.41968979       1.39669076       0.00000000
Si      -1.36941885      -1.36243044      -1.34867104       0.00000000
Si      -0.69673959      -2.31236550       2.66696506       0.00000000
Si      -2.29368087      -0.38325483       2.82032610       0.00000000
Si      -0.14157639       2.64205881       2.69058018       0.00000000
Si       2.70221778      -0.00208512      -2.70386370       0.00000000
Si       2.70920619       2.70629028       0.03586891       0.00000000
Si      -0.01200573       2.71293660      -2.70434424       0.00000000
