10
Lattice="16.28999089631971 0.0 0.0 0.0 16.28999089631971 0.0 0.0 0.0 34.32429715621058" Properties=species:S:1:pos:R:3:initial_magmoms:R:1 pbc="T T T"
Si      -1.75832631      -1.55359359       0.30037209       0.00000000
Si       1.86877251      -1.16134668       0.91615033       0.00000000
Si      -0.84795966       1.91485692       1.13939568       0.00000000
Si       0.69470334       1.24294329      -2.07885222       0.00000000
Si      -1.43793459       2.13157908      -2.38832026       0.00000000
Si       2.19193353      -0.29211228       3.05695794       0.00000000
Si      -1.40497992       3.47815935      -0.49155853       0.00000000
Si      -1.67184270      -2.19639210       2.63473452       0.00000000
Si       0.74013615       2.84170905       2.60274426       0.00000000
Si       3.97036170      -0.45476793       0.09216079       0.00000000
