10
Lattice="16.28999089631971 0.0 0.0 0.0 16.28999089631971 0.0 0.0 0.0 34.32429715621058" Properties=species:S:1:pos:R:3:initial_magmoms:R:1 pbc="T T T"
Si       1.35591444      -1.35707103       1.35762968       0.00000000
Si       1.35641943       1.35804843      -1.35701185       0.00000000
Si      -1.35827649      -1.35726651      -1.35766401       0.00000000
Si      -1.35907470       1.35900954       1.35927725       0.00000000
Si       0.01200573      -2.71293660       2.70434424       0.00000000
Si       2.71257822       2.71487511       0.00037757       0.00000000
Si       2.71415835       0.00021177      -2.71422964       0.00000000
Si      -0.00110772      -2.71453302      -2.71429829       0.00000000
Si      -2.71435383      -2.71471221       0.00120135       0.00000000
Si       2.71422351      -2.71502172       0.00048054       0.00000000
