10
Lattice="16.28999089631971 0.0 0.0 0.0 16.28999089631971 0.0 0.0 0.0 34.32429715621058" Properties=species:S:1:pos:R:3:initial_magmoms:R:1 pbc="T T T"
Si      -2.13263793       0.88863579      -0.30946804       0.00000000
Si       0.44484732      -1.03659786      -2.04198790       0.00000000
Si       1.72603953       1.81915317      -0.00209378       0.00000000
Si      -0.69470334      -1.24294329       2.07885222       0.00000000
Si      -0.49510197       2.96678367      -0.46756584       0.00000000
Si       2.96319987       0.58946994       1.65559907       0.00000000
Si      -2.09968326       2.23521606       1.58729368       0.00000000
Si      -1.54266300       0.67191363       3.21824790       0.00000000
Si       1.40877549       0.80457939      -3.30780004       0.00000000
Si       1.17406917      -2.40428997       2.99500255       0.00000000
