10
Lattice="16.28999089631971 0.0 0.0 0.0 16.28999089631971 0.0 0.0 0.0 34.32429715621058" Properties=species:S:1:pos:R:3:initial_magmoms:R:1 pbc="T T T"
Si       0.25132212       0.20569383       2.33920216       0.00000000
Si       0.47962647       2.22907473      -0.66451876       0.00000000
Si       1.06854255      -1.78215858      -1.16737000       0.00000000
Si      -2.22540948      -0.87423543      -0.16818915       0.00000000
Si      -0.88327638       2.27227581       2.67365830       0.00000000
Si      -1.07885412       2.54097936      -2.42690079       0.00000000
Si       0.90078813      -3.64060323       0.29731723       0.00000000
Si      -0.51955326      -2.70901071      -2.63071858       0.00000000
Si      -3.23907102      -0.52331625       1.98847629       0.00000000
Si      -1.44322884      -0.98823285       3.45319785       0.00000000
