10
Lattice="16.28999089631971 0.0 0.0 0.0 16.28999089631971 0.0 0.0 0.0 34.32429715621058" Properties=species:S:1:pos:R:3:initial_magmoms:R:1 pbc="T T T"
Si      -2.11084191      -0.59878782       0.80140414       0.00000000
Si       1.81299555      -1.19521359       0.91436546       0.00000000
Si       0.12681765       2.12353182       1.04774976       0.00000000
Si       0.55361565      -0.88220124      -2.20084084       0.00000000
Si       1.22930856       3.18994038      -0.76066117       0.00000000
Si      -2.43271602      -2.54811438      -0.41913423       0.00000000
Si       3.59153775       0.03482802      -0.05560539       0.00000000
Si      -1.54730565      -1.68577065       2.94011796       0.00000000
Si       1.44247950      -3.45116682       0.32384992       0.00000000
Si       2.16137349      -0.33329340       3.09196874       0.00000000
