10
Lattice="16.28999089631971 0.0 0.0 0.0 16.28999089631971 0.0 0.0 0.0 34.32429715621058" Properties=species:S:1:pos:R:3:initial_magmoms:R:1 pbc="T T T"
Si       0.37051605       2.25595323       0.59051554       0.00000000
Si      -0.19225458       0.27927576      -2.36477377       0.00000000
Si       1.79755263      -0.93115269       1.28764240       0.00000000
Si      -2.29407183      -0.72905895       0.11028403       0.00000000
Si      -0.88886385       2.56896558      -2.52469076       0.00000000
Si      -1.44247950       3.45116682      -0.32384992       0.00000000
Si       1.88152758      -0.21416463      -3.37998408       0.00000000
Si       2.64989430      -2.84818595       0.31763722       0.00000000
Si      -3.23806104      -0.62892432       2.21415867       0.00000000
Si      -3.87519552       0.90305244      -0.74298415       0.00000000
