10
Lattice="16.28999089631971 0.0 0.0 0.0 16.28999089631971 0.0 0.0 0.0 34.32429715621058" Properties=species:S:1:pos:R:3:initial_magmoms:R:1 pbc="T T T"
Si      -0.16280226      -1.47983247      -1.86357011       0.00000000
Si      -1.63742193       0.18598293       1.74532284       0.00000000
Si       0.64366677      -2.13742719       0.97954734       0.00000000
Si       0.00092853      -0.65821374       3.26012357       0.00000000
Si      -1.60112781      -2.85970950      -0.61746013       0.00000000
Si       2.50773147       1.28285379      -1.86480578       0.00000000
Si      -3.00055284      -1.48520817       0.83483602       0.00000000
Si       2.19722778      -1.10700324       2.45405132       0.00000000
Si      -1.46992815      -0.08022825      -3.28490572       0.00000000
Si      -2.82862818       1.32978528      -1.86545794       0.00000000
