10
Lattice="16.28999089631971 0.0 0.0 0.0 16.28999089631971 0.0 0.0 0.0 34.32429715621058" Properties=species:S:1:pos:R:3:initial_magmoms:R:1 pbc="T T T"
Si       1.95491403      -0.81674802       0.93973113       0.00000000
Si       0.31581423       2.32005438      -0.01970216       0.00000000
Si      -0.11574045      -0.81163296      -2.21971921       0.00000000
Si      -1.10249091      -1.06640856       1.80841093       0.00000000
Si      -1.22930856      -3.18994038       0.76066117       0.00000000
Si      -1.77872139       3.07128402       0.76859009       0.00000000
Si       3.68093727      -0.21212838      -0.47851529       0.00000000
Si       1.98821079       0.10459809       3.16415278       0.00000000
Si      -2.42807337      -1.24009254      -2.66830370       0.00000000
Si       1.05536394       0.61545249      -3.68368563       0.00000000
