10
Lattice="16.28999089631971 0.0 0.0 0.0 16.28999089631971 0.0 0.0 0.0 34.32429715621058" Properties=species:S:1:pos:R:3:initial_magmoms:R:1 pbc="T T T"
Si      -1.31126355       1.33416729      -1.40321581       0.00000000
Si       1.33669224       1.36630746       1.37686846       0.00000000
Si      -1.38020283      -1.34425080       1.36876792       0.00000000
Si       1.34107425      -1.39647654      -1.59796168       0.00000000
Si      -2.06389413      -0.56198871      -2.76324274       0.00000000
Si       2.67263514      -2.70488934      -0.01050324       0.00000000
Si       2.66779701       2.73477416       0.01961978       0.00000000
Si       2.69009802       0.01353699       2.73144328       0.00000000
Si      -0.44009064      -2.45140065      -2.91471595       0.00000000
Si      -0.02415807      -2.70503595       2.73010464       0.00000000
