10
Lattice="16.28999089631971 0.0 0.0 0.0 16.28999089631971 0.0 0.0 0.0 34.32429715621058" Properties=species:S:1:pos:R:3:initial_magmoms:R:1 pbc="T T T"
Si       1.09656135       0.83641005       1.88993118       0.00000000
Si       0.50466420       1.40196627      -1.89751686       0.00000000
Si      -2.32298658       0.23654709       0.63304337       0.00000000
Si       1.30183164      -2.06492040       0.22049941       0.00000000
Si       3.39473826       0.64298259       1.47704398       0.00000000
Si       2.71958292       0.83877210      -2.47080159       0.00000000
Si      -2.80934082       2.53851957       0.43272666       0.00000000
Si       0.13072725      -3.49200585       1.68446582       0.00000000
Si       0.56228193      -0.36031851       3.88448288       0.00000000
Si       0.87259014       3.09445559       2.40321701       0.00000000
