10
Lattice="16.28999089631971 0.0 0.0 0.0 16.28999089631971 0.0 0.0 0.0 34.32429715621058" Properties=species:S:1:pos:R:3:initial_magmoms:R:1 pbc="T T T"
Si      -0.22397121       2.25804554       0.51328583       0.00000000
Si      -1.09656135      -0.83641005      -1.88993118       0.00000000
Si       2.29817691      -0.19342746      -0.41288720       0.00000000
Si      -0.53427942      -1.19672856       1.99455170       0.00000000
Si       0.20527029      -2.90133045      -1.66943177       0.00000000
Si       0.18437022       1.94515161       2.83237394       0.00000000
Si       2.36796327      -2.51458956      -0.46708530       0.00000000
Si       0.93112011      -0.21831858       3.52534756       0.00000000
Si      -3.41954793      -0.59986296      -1.25688782       0.00000000
Si      -2.50202997       2.89661028       0.13314402       0.00000000
