10
Lattice="16.28999089631971 0.0 0.0 0.0 16.28999089631971 0.0 0.0 0.0 34.32429715621058" Properties=species:S:1:pos:R:3:initial_magmoms:R:1 pbc="T T T"
Si       1.35550719      -1.31777955       1.34627863       0.00000000
Si       0.94899024       1.61873730      -1.37595685       0.00000000
Si      -0.81195876      -1.87939359      -1.13883482       0.00000000
Si      -1.39486383       1.38386808       1.34018950       0.00000000
Si      -0.87390963       3.33068598      -1.26130192       0.00000000
Si       2.55165650       2.68698663       0.01846648       0.00000000
Si      -0.01821222      -1.56252051      -3.39594287       0.00000000
Si       2.73754494      -2.57083404      -0.14971924       0.00000000
Si      -0.02790477      -2.67697805       2.70473897       0.00000000
Si       2.68877268       0.03515382       2.70930410       0.00000000
