10
Lattice="16.28999089631971 0.0 0.0 0.0 16.28999089631971 0.0 0.0 0.0 34.32429715621058" Properties=species:S:1:pos:R:3:initial_magmoms:R:1 pbc="T T T"
Si      -1.61955180       1.27537668       1.01047355       0.00000000
Si       0.46165860      -1.73692614       1.47265047       0.00000000
Si      -0.32316102      -0.86923440      -2.14080761       0.00000000
Si       1.71260028       1.65486852      -0.07836241       0.00000000
Si       3.17858040      -0.17097984      -0.88803871       0.00000000
Si       1.77842817      -0.16265565      -2.96479715       0.00000000
Si       2.81294793      -1.41005588       1.47251317       0.00000000
Si      -1.45179738       3.13382133      -0.45421368       0.00000000
Si      -0.77512707      -1.18517895       3.41643650       0.00000000
Si      -1.19317734       1.14461685       3.31106085       0.00000000
