10
Lattice="16.28999089631971 0.0 0.0 0.0 16.28999089631971 0.0 0.0 0.0 34.32429715621058" Properties=species:S:1:pos:R:3:initial_magmoms:R:1 pbc="T T T"
Si      -1.36822968      -1.35483930       1.34407158       0.00000000
Si       1.35511853      -1.35676152      -1.35690887       0.00000000
Si      -1.35840681       1.35547461      -1.35656563       0.00000000
Si       1.36044047       1.34985456       1.36487211       0.00000000
Si      -2.71251306      -2.71305063       0.00254000       0.00000000
Si       2.71341620       2.71396287       0.00058351       0.00000000
Si       2.71370942       0.00039096      -2.71392072       0.00000000
Si      -2.71194291       2.71570590       0.00549189       0.00000000
Si       2.71312298      -2.71494027       0.00518297       0.00000000
Si      -0.00001712       2.71412577      -2.71395504       0.00000000
