10
Lattice="16.28999089631971 0.0 0.0 0.0 16.28999089631971 0.0 0.0 0.0 34.32429715621058" Properties=species:S:1:pos:R:3:initial_magmoms:R:1 pbc="T T T"
Si       0.89952307       2.17890153      -0.04424404       0.00000000
Si      -0.55011330      -0.71109108      -2.18192814       0.00000000
Si      -1.61202582       0.13378977       1.72407609       0.00000000
Si       1.30327235      -1.89956061       0.57256392       0.00000000
Si      -0.02909394      -0.51210873       3.40569299       0.00000000
Si       2.69725652       1.88172306       1.45294831       0.00000000
Si       2.27560616       1.97322399      -1.99022683       0.00000000
Si       3.52540754      -1.46000754      -0.20876049       0.00000000
Si       0.56310199      -2.65409712       2.72150639       0.00000000
Si      -3.45589092      -1.22134275       1.20749512       0.00000000
