10
Lattice="16.28999089631971 0.0 0.0 0.0 16.28999089631971 0.0 0.0 0.0 34.32429715621058" Properties=species:S:1:pos:R:3:initial_magmoms:R:1 pbc="T T T"
Si       1.35877444      -1.20749625      -1.50354235       0.00000000
Si       1.72490197       0.85623498       1.42933318       0.00000000
Si      -1.01327503      -1.80525780       1.27854646       0.00000000
Si      -1.35549535       1.51153281      -1.46987020       0.00000000
Si       2.70340969      -2.47554243      -0.00885567       0.00000000
Si       2.59317526       2.69136864      -0.09089079       0.00000000
Si       0.88036321      -3.45981681       1.22681971       0.00000000
Si      -0.00166603      -2.55735081      -2.86841447       0.00000000
Si      -2.76990718      -2.71122615      -0.07324809       0.00000000
Si       3.62179102      -0.62165898       1.29910672       0.00000000
