10
Lattice="16.28999089631971 0.0 0.0 0.0 16.28999089631971 0.0 0.0 0.0 34.32429715621058" Properties=species:S:1:pos:R:3:initial_magmoms:R:1 pbc="T T T"
Si      -0.06978636       2.32116210       0.05419810       0.00000000
Si       0.46288035      -1.21432176       2.00282386       0.00000000
Si       2.22817878      -0.86252292      -0.35189289       0.00000000
Si      -2.16269298      -0.38674089      -1.20234648       0.00000000
Si      -2.36796327       2.51458956       0.46708530       0.00000000
Si       1.80032193      -2.90061369       0.82017954       0.00000000
Si      -3.33379737      -1.81382634       0.26161994       0.00000000
Si       2.40543027      -1.34027604      -2.64499749       0.00000000
Si       0.48658230       3.22103799      -2.04469952       0.00000000
Si       1.27886274       3.27207456       1.71405338       0.00000000
