10
Lattice="16.28999089631971 0.0 0.0 0.0 16.28999089631971 0.0 0.0 0.0 34.32429715621058" Properties=species:S:1:pos:R:3:initial_magmoms:R:1 pbc="T T T"
Si       1.72602324       0.60461964      -1.41824643       0.00000000
Si      -1.95491403       0.81674802      -0.93973113       0.00000000
Si       0.40731516      -2.33836434      -0.23467535       0.00000000
Si       0.03329676       0.92134611       2.22442164       0.00000000
Si      -3.05740494      -0.24966054       0.86867980       0.00000000
Si       2.90944287       1.57262031       0.34612641       0.00000000
Si       2.33396604       0.64308033       2.48518348       0.00000000
Si      -1.76181237      -0.33143634       2.99078066       0.00000000
Si       2.49940728      -2.52255537       0.83624332       0.00000000
Si      -1.63909980       3.13680240      -0.95943329       0.00000000
