10
Lattice="16.28999089631971 0.0 0.0 0.0 16.28999089631971 0.0 0.0 0.0 34.32429715621058" Properties=species:S:1:pos:R:3:initial_magmoms:R:1 pbc="T T T"
Si       1.37636232      -1.29863880      -1.44412696       0.00000000
Si      -1.31297400       1.44143694      -1.43609507       0.00000000
Si       1.98637721       0.87451236       1.13452163       0.00000000
Si      -1.81141542      -0.98583822       1.36195455       0.00000000
Si      -2.65075767       2.75941197       0.05258485       0.00000000
Si      -2.77781967      -2.63345769      -0.02910702       0.00000000
Si       2.62507553      -2.81334816      -0.04263080       0.00000000
Si       0.03284064      -2.63096532      -2.81836961       0.00000000
Si      -3.44300553       0.95879682       1.48023614       0.00000000
Si      -2.68622100       0.08286723      -2.81860988       0.00000000
