10
Lattice="16.28999089631971 0.0 0.0 0.0 16.28999089631971 0.0 0.0 0.0 34.32429715621058" Properties=species:S:1:pos:R:3:initial_magmoms:R:1 pbc="T T T"
Si      -0.60540319       2.05824150      -0.88426304       0.00000000
Si       0.40237929      -1.59246153      -1.69922528       0.00000000
Si      -1.37608309       0.20567754       1.94598279       0.00000000
Si       2.27972034       0.06999813       0.72565037       0.00000000
Si       0.42165036      -0.09150093       3.44317514       0.00000000
Si       1.42910541       3.19225356      -0.82069440       0.00000000
Si      -2.27560616      -1.97322399       1.99022683       0.00000000
Si       2.15640504      -1.33507953       2.57226427       0.00000000
Si       2.35362807      -0.78167565      -2.80082989       0.00000000
Si       2.79656946       2.35017459       0.97930707       0.00000000
