10
Lattice="16.28999089631971 0.0 0.0 0.0 16.28999089631971 0.0 0.0 0.0 34.32429715621058" Properties=species:S:1:pos:R:3:initial_magmoms:R:1 pbc="T T T"
Si       0.67964716       0.55806282      -2.19517733       0.00000000
Si      -2.28654585       0.55988730       0.25986940       0.00000000
Si       1.20961136       1.01646523       1.77662661       0.00000000
Si      -0.02143764      -2.35537110       0.34183587       0.00000000
Si       0.46393184      -0.64586592       3.36278760       0.00000000
Si      -0.42935553       3.63321476      -0.29858723       0.00000000
Si      -3.02254434      -0.97508682       1.89775713       0.00000000
Si       0.17505234       2.81868218      -2.44069916       0.00000000
Si       0.90799875      -2.72437218       2.43980673       0.00000000
Si      -2.26751913      -3.00138363       0.80926441       0.00000000
