10
Lattice="16.28999089631971 0.0 0.0 0.0 16.28999089631971 0.0 0.0 0.0 34.32429715621058" Properties=species:S:1:pos:R:3:initial_magmoms:R:1 pbc="T T T"
Si       2.25495218      -0.37486548      -0.38391748       0.00000000
Si      -1.23152400      -0.70408638      -1.84894795       0.00000000
Si      -0.55636866      -0.89987589       2.09889762       0.00000000
Si       0.04489524       2.32994471       0.39215531       0.00000000
Si       2.39618457       2.65681496       0.39201802       0.00000000
Si      -0.49552551       0.83088774      -3.48683568       0.00000000
Si      -3.44644272      -0.14089221      -1.27566322       0.00000000
Si       3.00063170       1.28746567      -1.97007846       0.00000000
Si       3.55783278       0.71135172       1.20444026       0.00000000
Si       0.79228044       0.05103657       3.75875291       0.00000000
