10
Lattice="16.28999089631971 0.0 0.0 0.0 16.28999089631971 0.0 0.0 0.0 34.32429715621058" Properties=species:S:1:pos:R:3:initial_magmoms:R:1 pbc="T T T"
Si       0.53884062      -2.31402708      -0.15298348       0.00000000
Si       0.12888648       0.87247611      -2.22514246       0.00000000
Si      -1.89436410      -0.34929018       1.44220480       0.00000000
Si      -2.85456186       1.16017380      -0.09995241       0.00000000
Si      -0.60365853       0.92660778       2.91202149       0.00000000
Si       0.29102085       2.70598307       1.61046504       0.00000000
Si      -1.18368027       2.77343181      -1.86676227       0.00000000
Si       2.46271310       0.96251094      -2.67372695       0.00000000
Si      -0.92400138      -3.30888996      -1.65374556       0.00000000
Si       2.85611660      -2.47130703      -0.63990823       0.00000000
