10
Lattice="16.28999089631971 0.0 0.0 0.0 16.28999089631971 0.0 0.0 0.0 34.32429715621058" Properties=species:S:1:pos:R:3:initial_magmoms:R:1 pbc="T T T"
Si       1.61074054       0.49451553      -1.73900716       0.00000000
Si      -2.11449643      -0.46214730      -1.09491137       0.00000000
Si      -0.38854419       1.99479195       1.33751563       0.00000000
Si       1.16004511      -2.14573509       0.99399788       0.00000000
Si      -0.10686729       0.36435843      -3.37112840       0.00000000
Si       1.06714324       3.42510282       0.10719484       0.00000000
Si      -2.99622526       1.66544073      -1.43496237       0.00000000
Si      -2.63719366       2.60540631       0.68391200       0.00000000
Si       0.10418595      -3.77815599      -0.31410182       0.00000000
Si      -1.86578071      -0.27899883       3.39810732       0.00000000
