10
Lattice="16.28999089631971 0.0 0.0 0.0 16.28999089631971 0.0 0.0 0.0 34.32429715621058" Properties=species:S:1:pos:R:3:initial_magmoms:R:1 pbc="T T T"
Si      -1.35800445       1.35817875      -1.36209185       0.00000000
Si       1.35967743      -1.36039582      -1.36130239       0.00000000
Si      -1.36570962      -1.35062996       1.37245779       0.00000000
Si       1.35454608       1.36099692       1.39264049       0.00000000
Si      -2.71312298       2.71494027      -0.00518297       0.00000000
Si       2.71384884       2.71740006      -0.00020595       0.00000000
Si      -2.71476827      -2.71714349      -0.00257432       0.00000000
Si       2.71775844      -2.71540358      -0.00542324       0.00000000
Si      -2.71417727      -0.00009774      -2.71910369       0.00000000
Si       0.00058644       2.71533123      -2.71910369       0.00000000
