10
Lattice="16.28999089631971 0.0 0.0 0.0 16.28999089631971 0.0 0.0 0.0 34.32429715621058" Properties=species:S:1:pos:R:3:initial_magmoms:R:1 pbc="T T T"
Si       1.35658233      -1.35734796      -1.35732077       0.00000000
Si      -1.35653672       1.35855342      -1.35790428       0.00000000
Si      -1.35297572      -1.36410831       1.36428860       0.00000000
Si       1.37402892       1.35407367       1.37259509       0.00000000
Si      -0.11857491       2.53475658       2.77694016       0.00000000
Si       2.71355562      -2.71150308       0.00439351       0.00000000
Si      -2.71341620      -2.71396287      -0.00058351       0.00000000
Si      -2.71080980       2.71713942       0.00120135       0.00000000
Si      -2.71343331       0.00016290      -2.71453856       0.00000000
Si       0.00029322      -2.71357191      -2.71450423       0.00000000
