10
Lattice="16.28999089631971 0.0 0.0 0.0 16.28999089631971 0.0 0.0 0.0 34.32429715621058" Properties=species:S:1:pos:R:3:initial_magmoms:R:1 pbc="T T T"
Si      -0.54279909       2.22668010       0.30205398       0.00000000
Si      -2.03450860      -1.13401206      -0.06356863       0.00000000
Si       0.70465653      -0.00192222      -2.26053083       0.00000000
Si       1.36746405      -0.84207897       1.80000147       0.00000000
Si       0.85061493      -3.12225543       1.54634478       0.00000000
Si       2.88903150       0.87573411      -1.93657793       0.00000000
Si      -1.42910541      -3.19225356       0.82069440       0.00000000
Si      -2.85164269       2.23831116       0.48095232       0.00000000
Si       0.65366883       2.92180698       2.19939922       0.00000000
Si      -3.63181382       0.13036887       1.18755270       0.00000000
