10
Lattice="16.28999089631971 0.0 0.0 0.0 16.28999089631971 0.0 0.0 0.0 34.32429715621058" Properties=species:S:1:pos:R:3:initial_magmoms:R:1 pbc="T T T"
Si       0.14848335       2.08520145       1.19294161       0.00000000
Si       0.36834948      -1.88680554       1.47333695       0.00000000
Si      -2.35114710      -0.55187262      -0.32556614       0.00000000
Si      -0.22035483      -1.01511135      -2.91042743       0.00000000
Si      -2.11724388       0.46278261      -2.78020097       0.00000000
Si      -1.18882791       3.33379737      -0.43536963       0.00000000
Si       0.85761963      -3.50774199      -0.19582022       0.00000000
Si      -3.55345499       0.86705154       1.22668242       0.00000000
Si      -2.73370635      -2.88969939       0.51949853       0.00000000
Si      -1.58289930      -2.69759142       2.57494156       0.00000000
