10
Lattice="16.28999089631971 0.0 0.0 0.0 16.28999089631971 0.0 0.0 0.0 34.32429715621058" Properties=species:S:1:pos:R:3:initial_magmoms:R:1 pbc="T T T"
Si      -1.80339504      -1.31383737      -0.69067389       0.00000000
Si      -0.80585164       2.18147535      -0.22767319       0.00000000
Si       1.48698378      -0.74930742      -1.78150067       0.00000000
Si       0.59350986      -0.21864438       2.35890432       0.00000000
Si       2.86203897      -1.36480878       0.13032943       0.00000000
Si       1.13710716      -3.14923167       0.51270231       0.00000000
Si      -0.58050067      -3.27938877      -1.11941893       0.00000000
Si       0.44434233       3.23693703       1.45524804       0.00000000
Si       3.59767908       0.96695811       0.20450428       0.00000000
Si      -3.05982305       2.11686921       0.32663019       0.00000000
