10
Lattice="16.28999089631971 0.0 0.0 0.0 16.28999089631971 0.0 0.0 0.0 34.32429715621058" Properties=species:S:1:pos:R:3:initial_magmoms:R:1 pbc="T T T"
Si      -1.45568743      -1.43031087       1.23032079       0.00000000
Si      -0.59350986       0.21864438      -2.35890432       0.00000000
Si       2.18312064      -1.02586275       0.46372151       0.00000000
Si      -0.44869176       2.24355654       1.12062028       0.00000000
Si       2.26852911      -1.14616440      -2.22857489       0.00000000
Si       0.54359730      -2.93058729      -1.84620200       0.00000000
Si      -0.62527536      -0.64050651       3.43193122       0.00000000
Si      -0.14916753       3.45558141      -0.90365628       0.00000000
Si      -1.06714324      -3.42510282      -0.10719484       0.00000000
Si      -1.39936150       2.40011973      -2.58657751       0.00000000
