10
Lattice="16.28999089631971 0.0 0.0 0.0 16.28999089631971 0.0 0.0 0.0 34.32429715621058" Properties=species:S:1:pos:R:3:initial_magmoms:R:1 pbc="T T T"
Si      -0.50459482       2.26061936      -0.24552183       0.00000000
Si       2.26546170      -0.41205555      -0.41209774       0.00000000
Si      -0.67964716      -0.55806282       2.19517733       0.00000000
Si       1.74849855      -1.62209304      -2.42271322       0.00000000
Si      -1.99902313       2.18534327      -2.25194975       0.00000000
Si      -1.10900269       3.07515194       1.89659010       0.00000000
Si      -2.96619301       0.00182448       2.45504673       0.00000000
Si      -0.70108480      -2.91343392       2.53701319       0.00000000
Si       0.52996420       0.45840241       3.97180394       0.00000000
Si       3.43638690      -2.10962016       0.62157904       0.00000000
