10
Lattice="16.28999089631971 0.0 0.0 0.0 16.28999089631971 0.0 0.0 0.0 34.32429715621058" Properties=species:S:1:pos:R:3:initial_magmoms:R:1 pbc="T T T"
Si      -0.56931921      -0.92955627       2.05139277       0.00000000
Si      -0.46784880       2.29682484      -0.05282512       0.00000000
Si      -1.19646792      -0.69512688      -1.89734523       0.00000000
Si       2.24375202      -0.56692458      -0.58615635       0.00000000
Si      -0.16454529       0.81912636      -3.38242110       0.00000000
Si       2.00663478      -0.00122175      -2.89704095       0.00000000
Si       0.49317975      -2.99332008       1.87699091       0.00000000
Si       1.09128339       3.25436800       1.35131401       0.00000000
Si       0.89029737       0.16400772       3.58479727       0.00000000
Si      -2.64649783       2.48122764       0.79289171       0.00000000
