10
Lattice="10.86 0.0 0.0 0.0 10.86 0.0 0.0 0.0 10.86" Properties=species:S:1:pos:R:3:initial_magmoms:R:1 pbc="T T T"
Si       1.09716408      -1.54138152       1.09744644       0.00000000
Si       1.30893408       1.45009236      -1.17121842       0.00000000
Si      -1.35750000       1.35750000       1.35750000       0.00000000
Si      -1.35750000      -1.35750000      -1.35750000       0.00000000
Si       2.80897158      -2.38480170       0.01617054       0.00000000
Si       2.83680576       0.31857810      -2.40286188       0.00000000
Si       2.71500000       0.00000000       2.71500000       0.00000000
Si      -2.71500000       2.71500000       0.00000000       0.00000000
Si      -2.71500000       0.00000000      -2.71500000       0.00000000
Si       0.00000000       2.71500000      -2.71500000       0.00000000
