10
Lattice="10.86 0.0 0.0 0.0 10.86 0.0 0.0 0.0 10.86" Properties=species:S:1:pos:R:3:initial_magmoms:R:1 pbc="T T T"
Si      -1.23277290      -1.07620428       1.45105890       0.00000000
Si       1.48222710      -1.07620428      -1.26394110       0.00000000
Si      -1.67548080       0.03887880      -1.77994314       0.00000000
Si       1.48222710       1.63879572       1.45105890       0.00000000
Si      -2.59027290      -2.43370428       0.09355890       0.00000000
Si       0.12472710      -2.43370428      -2.62144110       0.00000000
Si      -2.43311784       2.77129824      -0.01038216       0.00000000
Si       0.12472710      -2.43370428       2.80855890       0.00000000
Si       2.83972710      -2.43370428       0.09355890       0.00000000
Si      -2.59027290       0.28129572       2.80855890       0.00000000
