10
Lattice="10.86 0.0 0.0 0.0 10.86 0.0 0.0 0.0 10.86" Properties=species:S:1:pos:R:3:initial_magmoms:R:1 pbc="T T T"
Si       1.36028016       1.02438036       1.39571634       0.00000000
Si      -1.85753784       0.81165468      -0.90737472       0.00000000
Si       1.36028016      -1.69061964      -1.31928366       0.00000000
Si      -1.35471984      -1.69061964       1.39571634       0.00000000
Si       2.71778016       2.38188036       0.03821634       0.00000000
Si       0.13452282       2.10505896       2.96147856       0.00000000
Si       2.71778016      -0.33311964      -2.67678366       0.00000000
Si      -2.78652396      -0.48836334      -2.60976660       0.00000000
Si       2.71778016      -0.33311964       2.75321634       0.00000000
Si      -2.83694694      -0.61441536       2.65965744       0.00000000
