10
Lattice="10.86 0.0 0.0 0.0 10.86 0.0 0.0 0.0 10.86" Properties=species:S:1:pos:R:3:initial_magmoms:R:1 pbc="T T T"
Si       1.17705024      -0.79222614      -1.61276430       0.00000000
Si      -1.36576446       1.45333950      -1.25264670       0.00000000
Si      -1.36576446      -1.26166050       1.46235330       0.00000000
Si       1.34923554       1.45333950       1.46235330       0.00000000
Si      -0.12277230      -2.48020680      -2.53892682       0.00000000
Si      -2.72326446       0.09583950      -2.61014670       0.00000000
Si      -2.72326446      -2.61916050       0.10485330       0.00000000
Si      -0.00826446       2.81083950      -2.61014670       0.00000000
Si       2.70673554       2.81083950       0.10485330       0.00000000
Si      -2.72326446       2.81083950       0.10485330       0.00000000
