10
Lattice="10.86 0.0 0.0 0.0 10.86 0.0 0.0 0.0 10.86" Properties=species:S:1:pos:R:3:initial_magmoms:R:1 pbc="T T T"
Si       1.65199062       0.66005994      -1.32619062       0.00000000
Si       1.48273752      -1.52294124       0.83872866       0.00000000
Si      -0.80159832      -1.70234844      -1.66658646       0.00000000
Si      -1.50490278       2.22482304       0.20303856       0.00000000
Si      -1.68775260      -0.19870542       2.14767360       0.00000000
Si      -3.14215638       1.12499826      -1.61160228       0.00000000
Si      -2.07380388      -3.07863624      -0.40344900       0.00000000
Si      -2.07380388      -0.36363624      -3.11844900       0.00000000
Si       0.64119612      -3.07863624       2.31155100       0.00000000
Si       0.64119612       2.35136376      -3.11844900       0.00000000
