10
Lattice="10.86 0.0 0.0 0.0 10.86 0.0 0.0 0.0 10.86" Properties=species:S:1:pos:R:3:initial_magmoms:R:1 pbc="T T T"
Si       1.41042078       1.22738634       1.44859368       0.00000000
Si       1.41042078      -1.48761366      -1.26640632       0.00000000
Si      -1.30457922      -1.48761366       1.44859368       0.00000000
Si      -0.15174678       2.61214494      -2.62607832       0.00000000
Si      -2.69607102       2.62327644       0.18870336       0.00000000
Si       2.76792078       2.58488634       0.09109368       0.00000000
Si       0.05292078       2.58488634       2.80609368       0.00000000
Si       2.76792078      -0.13011366      -2.62390632       0.00000000
Si      -0.46303782      -2.64691866      -2.73922866       0.00000000
Si      -2.66207922      -0.13011366       2.80609368       0.00000000
