10
Lattice="10.86 0.0 0.0 0.0 10.86 0.0 0.0 0.0 10.86" Properties=species:S:1:pos:R:3:initial_magmoms:R:1 pbc="T T T"
Si       1.37417010       1.25287476       1.35470898       0.00000000
Si      -1.34082990      -1.46212524       1.35470898       0.00000000
Si       1.37417010      -1.46212524      -1.36029102       0.00000000
Si       0.03312300       2.54011056       2.69407278       0.00000000
Si       2.73167010       2.61037476      -0.00279102       0.00000000
Si       0.04952160       2.62741410      -2.72210244       0.00000000
Si      -2.63880624      -0.11063082       2.71917024       0.00000000
Si       2.73167010      -0.10462524       2.71220898       0.00000000
Si       2.73167010      -0.10462524      -2.71779102       0.00000000
Si      -2.74670034      -0.16841688      -2.71831230       0.00000000
