10
Lattice="10.86 0.0 0.0 0.0 10.86 0.0 0.0 0.0 10.86" Properties=species:S:1:pos:R:3:initial_magmoms:R:1 pbc="T T T"
Si       1.32464850       1.34046066       1.36181142       0.00000000
Si       1.32464850      -1.37453934      -1.35318858       0.00000000
Si      -1.39035150       1.34046066      -1.35318858       0.00000000
Si      -0.04952160      -2.62741410       2.72210244       0.00000000
Si       2.68214850       2.69796066       0.00431142       0.00000000
Si       2.68214850      -0.01703934      -2.71068858       0.00000000
Si       2.68214850      -0.01703934       2.71931142       0.00000000
Si      -0.03285150       2.69796066      -2.71068858       0.00000000
Si       2.68214850      -2.73203934       0.00431142       0.00000000
Si      -0.03285150      -2.73203934      -2.71068858       0.00000000
