10
Lattice="10.86 0.0 0.0 0.0 10.86 0.0 0.0 0.0 10.86" Properties=species:S:1:pos:R:3:initial_magmoms:R:1 pbc="T T T"
Si      -1.35750000      -1.35750000       1.35750000       0.00000000
Si       1.35750000       1.35750000       1.35750000       0.00000000
Si      -1.35750000       1.35750000      -1.35750000       0.00000000
Si       1.35750000      -1.35750000      -1.35750000       0.00000000
Si       2.65796328      -0.03338364       2.65394508       0.00000000
Si      -2.73167010      -2.61037476       0.00279102       0.00000000
Si      -2.61847632       2.75396568       0.06587676       0.00000000
Si      -2.69854710      -0.07026420       2.69686380       0.00000000
Si      -2.68214850       0.01703934      -2.71931142       0.00000000
Si       0.00000000       2.71500000      -2.71500000       0.00000000
