10
Lattice="10.86 0.0 0.0 0.0 10.86 0.0 0.0 0.0 10.86" Properties=species:S:1:pos:R:3:initial_magmoms:R:1 pbc="T T T"
Si       1.41319008       1.30180992      -1.09187526       0.00000000
Si      -1.30180992      -1.41319008      -1.09187526       0.00000000
Si      -1.30180992       1.30180992       1.62312474       0.00000000
Si       1.45455582      -1.45455582       1.84171482       0.00000000
Si       0.05569008       2.65930992      -2.44937526       0.00000000
Si      -2.65930992      -0.05569008      -2.44937526       0.00000000
Si       2.77069008      -0.05569008      -2.44937526       0.00000000
Si       0.05569008      -2.77069008      -2.44937526       0.00000000
Si      -2.65930992       2.65930992       0.26562474       0.00000000
Si       2.71688964      -2.71688964       0.15371244       0.00000000
