10
Lattice="10.86 0.0 0.0 0.0 10.86 0.0 0.0 0.0 10.86" Properties=species:S:1:pos:R:3:initial_magmoms:R:1 pbc="T T T"
Si       1.24975794      -1.36486308      -1.35031068       0.00000000
Si      -1.46524206       1.35013692      -1.35031068       0.00000000
Si      -1.46524206      -1.36486308       1.36468932       0.00000000
Si       2.41373274       0.04037748       2.59543140       0.00000000
Si       2.43943836       2.61897588       0.11093490       0.00000000
Si      -0.05810100       2.54766912       2.60611764       0.00000000
Si      -2.72408982       2.52225672       0.04002996       0.00000000
Si       2.60725794      -0.00736308      -2.70781068       0.00000000
Si       2.60725794      -2.72236308       0.00718932       0.00000000
Si      -0.10774206       2.70763692      -2.70781068       0.00000000
