10
Lattice="10.86 0.0 0.0 0.0 10.86 0.0 0.0 0.0 10.86" Properties=species:S:1:pos:R:3:initial_magmoms:R:1 pbc="T T T"
Si       1.18837722       1.28258772      -1.39542312       0.00000000
Si      -1.52662278       1.28258772       1.31957688       0.00000000
Si      -1.52662278      -1.43241228      -1.39542312       0.00000000
Si       2.47581936       0.01008894       2.59726674       0.00000000
Si       2.54587722       2.64008772      -0.03792312       0.00000000
Si       2.50635768      -2.76875700      -0.01248900       0.00000000
Si       2.54587722      -0.07491228      -2.75292312       0.00000000
Si      -0.16912278       2.64008772       2.67707688       0.00000000
Si      -0.16912278       2.64008772      -2.75292312       0.00000000
Si      -2.88412278       2.64008772      -0.03792312       0.00000000
