10
Lattice="10.86 0.0 0.0 0.0 10.86 0.0 0.0 0.0 10.86" Properties=species:S:1:pos:R:3:initial_magmoms:R:1 pbc="T T T"
Si       1.35750000       1.35750000       1.35750000       0.00000000
Si      -1.35750000       1.35750000      -1.35750000       0.00000000
Si       1.35750000      -1.35750000      -1.35750000       0.00000000
Si      -1.35750000      -1.35750000       1.35750000       0.00000000
Si       2.61161280       2.57905452      -0.19616418       0.00000000
Si       2.80703850      -2.46486162      -0.15617766       0.00000000
Si       0.10336548       2.82369774      -2.55606390       0.00000000
Si      -2.89042158      -2.48850384       0.10870860       0.00000000
Si       0.04399386       2.71519548       2.70769122       0.00000000
Si       2.71500000       0.00000000       2.71500000       0.00000000
