10
Lattice="10.86 0.0 0.0 0.0 10.86 0.0 0.0 0.0 10.86" Properties=species:S:1:pos:R:3:initial_magmoms:R:1 pbc="T T T"
Si      -1.21781868      -1.21864404       1.33376004       0.00000000
Si      -1.21781868       1.49635596      -1.38123996       0.00000000
Si       1.49718132       1.49635596       1.33376004       0.00000000
Si      -2.32355130      -2.50796496      -0.13881252       0.00000000
Si       2.59247748      -2.48083668      -0.14017002       0.00000000
Si      -2.57531868       0.13885596       2.69126004       0.00000000
Si       0.13968132      -2.57614404       2.69126004       0.00000000
Si      -2.75074026       0.36535212      -2.63003136       0.00000000
Si      -2.57531868       2.85385596      -0.02373996       0.00000000
Si       0.13968132       2.85385596       2.69126004       0.00000000
