10
Lattice="16.28999089631971 0.0 0.0 0.0 16.28999089631971 0.0 0.0 0.0 34.529650657227435" Properties=species:S:1:pos:R:3:initial_magmoms:R:1 pbc="T T T"
Si      -2.13761357       0.65625894       0.75019161       0.00000000
Si       0.16210179       1.13562477      -2.06957030       0.00000000
Si       1.54271187       1.29779172       1.27566413       0.00000000
Si       0.47159550      -2.32810164      -0.25248095       0.00000000
Si       0.06037074       2.91351734       2.15599806       0.00000000
Si       2.44509642       1.36213722      -2.30768690       0.00000000
Si       1.66731408      -2.44437966      -2.27336441       0.00000000
Si      -3.21514820       1.60305003      -1.15840137       0.00000000
Si      -1.11581124      -0.10212201      -3.62596064       0.00000000
Si      -1.90350998       1.81768707       2.76845082       0.00000000
