10
Lattice="16.28999089631971 0.0 0.0 0.0 16.28999089631971 0.0 0.0 0.0 34.529650657227435" Properties=species:S:1:pos:R:3:initial_magmoms:R:1 pbc="T T T"
Si       1.37456649       1.34150268      -1.34734772       0.00000000
Si       1.30583898      -1.40636946       1.35062804       0.00000000
Si      -1.34410419      -1.37754986      -1.34800379       0.00000000
Si      -1.34205165       1.30340037       1.43601991       0.00000000
Si      -2.69094510       2.70776127       0.04740924       0.00000000
Si      -2.69736336      -0.01728858      -2.70350051       0.00000000
Si       0.01376505       2.70038190      -2.70778219       0.00000000
Si      -2.69268813      -2.73012485       0.04147013       0.00000000
Si       2.73284298       2.69634198       0.01460605       0.00000000
Si       2.73101850      -0.01849078      -2.70467452       0.00000000
