10
Lattice="16.28999089631971 0.0 0.0 0.0 16.28999089631971 0.0 0.0 0.0 34.529650657227435" Properties=species:S:1:pos:R:3:initial_magmoms:R:1 pbc="T T T"
Si       1.32960609      -1.66897470       1.04797548       0.00000000
Si      -1.36923966      -1.37270847      -1.39434260       0.00000000
Si       1.41203349       1.34010499      -1.43094405       0.00000000
Si      -1.65522690       1.63497028       2.61538079       0.00000000
Si      -3.13527277       1.47366670       0.53603860       0.00000000
Si      -0.05483214       3.16790816       1.82157821       0.00000000
Si      -2.67138733       0.00843170      -2.84085954       0.00000000
Si       0.06139701      -2.69342022      -2.82549383       0.00000000
Si      -2.32399656      -3.14784606      -0.01840431       0.00000000
Si       2.35693494      -0.97581173       2.99589775       0.00000000
