10
Lattice="16.28999089631971 0.0 0.0 0.0 16.28999089631971 0.0 0.0 0.0 34.529650657227435" Properties=species:S:1:pos:R:3:initial_magmoms:R:1 pbc="T T T"
Si      -1.68783948      -1.24575169      -1.07290590       0.00000000
Si      -0.55873071       2.28833775       0.40192536       0.00000000
Si       1.71030339      -0.28865880      -1.69754763       0.00000000
Si       0.19243377      -0.74979612       2.40934225       0.00000000
Si      -0.45133074      -3.11504615      -1.83932646       0.00000000
Si       1.48313934       3.07130031       1.39061340       0.00000000
Si      -1.91151747       0.26564103       3.17282778       0.00000000
Si      -2.29905657       0.14807610      -2.95287379       0.00000000
Si       2.48911200       0.07004700       2.82217898       0.00000000
Si      -0.00413766      -3.12273503       2.18372539       0.00000000
