10
Lattice="16.28999089631971 0.0 0.0 0.0 16.28999089631971 0.0 0.0 0.0 34.529650657227435" Properties=species:S:1:pos:R:3:initial_magmoms:R:1 pbc="T T T"
Si       0.56132082      -2.03473666      -0.92967683       0.00000000
Si       1.57125195       0.69978582       1.61847469       0.00000000
Si       0.19978056       1.74995325      -1.57655567       0.00000000
Si      -1.40225949      -0.12215871       1.90230858       0.00000000
Si      -0.28140975       1.86017139       2.82055609       0.00000000
Si      -0.02565675      -1.65928311      -3.13211730       0.00000000
Si       2.94748002      -1.67416891      -1.21178424       0.00000000
Si      -0.35145675      -2.07119531       3.09865805       0.00000000
Si       0.58546260       3.76228953      -0.44329190       0.00000000
Si       1.83630654      -1.02588881       3.30044944       0.00000000
