10
Lattice="16.28999089631971 0.0 0.0 0.0 16.28999089631971 0.0 0.0 0.0 34.529650657227435" Properties=species:S:1:pos:R:3:initial_magmoms:R:1 pbc="T T T"
Si      -1.35892809      -1.35658233      -1.35601467       0.00000000
Si       1.35811359      -1.35703845       1.35667073       0.00000000
Si       1.35861858       1.35679410      -1.35705056       0.00000000
Si      -1.35772263       1.35798327       1.35746491       0.00000000
Si       2.71215468       0.00262269       2.71240916       0.00000000
Si       2.71301805      -0.00076563      -2.71524060       0.00000000
Si      -2.71500380       0.00112401      -2.71347958       0.00000000
Si      -0.00021177       2.71344159       2.71510248       0.00000000
Si       2.71487511      -2.71484090       0.00041436       0.00000000
Si       2.71467963       2.71507059       0.00051795       0.00000000
