10
Lattice="16.28999089631971 0.0 0.0 0.0 16.28999089631971 0.0 0.0 0.0 34.529650657227435" Properties=species:S:1:pos:R:3:initial_magmoms:R:1 pbc="T T T"
Si       1.36822968      -1.21784040       1.46503520       0.00000000
Si       1.10729646       1.49573151      -1.50085770       0.00000000
Si      -0.81616158      -1.92596670      -1.18783860       0.00000000
Si      -1.36303317       1.49161014       1.44230777       0.00000000
Si       2.62317870      -2.66395257       0.01394308       0.00000000
Si       2.66219325       2.68403814      -0.04490584       0.00000000
Si      -0.00746082      -2.56844430       2.82285922       0.00000000
Si      -2.77241465      -2.65219119       0.02898075       0.00000000
Si      -2.31811587      -1.28559051      -2.81512599       0.00000000
Si       2.71034649       0.14716386       2.83187146       0.00000000
