10
Lattice="16.28999089631971 0.0 0.0 0.0 16.28999089631971 0.0 0.0 0.0 34.529650657227435" Properties=species:S:1:pos:R:3:initial_magmoms:R:1 pbc="T T T"
Si      -1.86854445       0.88198947       1.10843694       0.00000000
Si       1.96732701       0.41169717       1.24890363       0.00000000
Si      -0.21818826      -2.25531792      -0.70095230       0.00000000
Si      -0.26982756       1.03847121      -2.12429983       0.00000000
Si      -3.33239643       0.13258431      -0.63790112       0.00000000
Si      -2.24520183      -0.06374277      -2.73457721       0.00000000
Si       1.99221813      -3.00895848      -0.27520147       0.00000000
Si      -1.39587381       3.24125388       0.81956172       0.00000000
Si       3.47664438      -1.17672444       0.30679612       0.00000000
Si      -0.91305450       3.25728324      -1.53556895       0.00000000
