10
Lattice="16.28999089631971 0.0 0.0 0.0 16.28999089631971 0.0 0.0 0.0 34.529650657227435" Properties=species:S:1:pos:R:3:initial_magmoms:R:1 pbc="T T T"
Si       1.35762489       1.35630540       1.35753397       0.00000000
Si      -1.35746199       1.35692442      -1.35777568       0.00000000
Si      -1.35843939      -1.35892809       1.35691244       0.00000000
Si       1.35808101      -1.35865116      -1.35791380       0.00000000
Si      -0.00255753       2.71147050       2.71434283       0.00000000
Si      -2.71498914       2.71417512      -0.00013812       0.00000000
Si       2.71528236       2.71420278      -0.00065606       0.00000000
Si       0.00014661       2.71420721      -2.71548230       0.00000000
Si       2.71498914       0.00011403      -2.71520607       0.00000000
Si      -2.71213839       0.00047241       2.71924604       0.00000000
