10
Lattice="16.28999089631971 0.0 0.0 0.0 16.28999089631971 0.0 0.0 0.0 34.529650657227435" Properties=species:S:1:pos:R:3:initial_magmoms:R:1 pbc="T T T"
Si       1.34573319       1.35420399       1.36989560       0.00000000
Si       1.35384561      -1.35711990      -1.36029635       0.00000000
Si      -1.36117611       1.35865116      -1.35898422       0.00000000
Si      -1.36096434      -1.36878354       1.39558567       0.00000000
Si      -0.07141536       2.68499666       2.69645646       0.00000000
Si      -2.71414206      -2.71262709       0.00145025       0.00000000
Si       2.71393029      -2.71417464      -0.00207178       0.00000000
Si       2.71200807       0.00162900      -2.71669084       0.00000000
Si       2.71551042       2.71324611      -0.00162289       0.00000000
Si      -0.00296478      -2.71357191      -2.71655272       0.00000000
