10
Lattice="16.28999089631971 0.0 0.0 0.0 16.28999089631971 0.0 0.0 0.0 34.529650657227435" Properties=species:S:1:pos:R:3:initial_magmoms:R:1 pbc="T T T"
Si      -1.72820610       1.24115139       1.01831450       0.00000000
Si       1.00211193       1.54046126      -1.54599691       0.00000000
Si      -1.65939714      -1.20128976      -1.35342494       0.00000000
Si       1.92927357      -0.53540343       1.66660905       0.00000000
Si      -0.70087725       1.93431437       2.96623677       0.00000000
Si       0.87073308       0.36616662       3.58780536       0.00000000
Si       2.41926048       0.20966859      -2.87255777       0.00000000
Si       2.79026523       2.54402626      -0.12689654       0.00000000
Si      -0.28743705      -2.51331894      -2.84686770       0.00000000
Si      -0.51367257      -1.59277104       3.60893751       0.00000000
