10
Lattice="16.28999089631971 0.0 0.0 0.0 16.28999089631971 0.0 0.0 0.0 34.529650657227435" Properties=species:S:1:pos:R:3:initial_magmoms:R:1 pbc="T T T"
Si       1.37433843       1.82177586       0.17561790       0.00000000
Si      -2.27746322       0.26834517       0.12026684       0.00000000
Si       0.69419835      -2.05032619       0.77332649       0.00000000
Si       0.53755371      -0.34511994      -2.33306621       0.00000000
Si       2.72896596      -1.61969841      -0.40748464       0.00000000
Si       3.35808576       0.68170392      -0.14347078       0.00000000
Si      -0.40672872      -3.31573697      -0.87909087       0.00000000
Si      -1.08798955      -1.97591021      -2.73450815       0.00000000
Si       0.73927278       3.09338955      -1.65334966       0.00000000
Si      -3.04385885      -0.78345126      -1.90210140       0.00000000
