10
Lattice="16.28999089631971 0.0 0.0 0.0 16.28999089631971 0.0 0.0 0.0 34.529650657227435" Properties=species:S:1:pos:R:3:initial_magmoms:R:1 pbc="T T T"
Si       2.15223480      -0.85871106       0.30534587       0.00000000
Si      -0.46693656      -1.13362110      -2.02060723       0.00000000
Si       0.19657143       2.37293891       0.22561686       0.00000000
Si      -1.36932111      -1.19796660       1.56274380       0.00000000
Si      -2.74993119      -1.36013355      -1.78249062       0.00000000
Si       0.28403244       2.11379759       2.91468397       0.00000000
Si       2.22500223      -1.25219601       2.57874481       0.00000000
Si      -2.85166224       0.41775902       2.44307774       0.00000000
Si       0.17010018      -2.26044927       3.04669090       0.00000000
Si       0.00413766       3.12273503      -2.18372539       0.00000000
