10
Lattice="16.28999089631971 0.0 0.0 0.0 16.28999089631971 0.0 0.0 0.0 34.529650657227435" Properties=species:S:1:pos:R:3:initial_magmoms:R:1 pbc="T T T"
Si      -0.69419835       2.05032619      -0.77332649       0.00000000
Si      -1.10092707      -1.26541078      -1.65241736       0.00000000
Si       2.03476761       0.43062778      -1.18081112       0.00000000
Si      -0.85431276      -0.57632391       2.17782081       0.00000000
Si      -0.15664464       1.70520625      -3.10639270       0.00000000
Si      -0.62288073      -3.00523363       2.09560567       0.00000000
Si      -2.97166157       2.31867136      -0.65305965       0.00000000
Si       0.38141406      -2.88113641      -2.53275129       0.00000000
Si       2.66388741       2.73203011      -0.91679727       0.00000000
Si      -1.78218790       0.07441598      -3.50783464       0.00000000
