10
Lattice="16.28999089631971 0.0 0.0 0.0 16.28999089631971 0.0 0.0 0.0 34.529650657227435" Properties=species:S:1:pos:R:3:initial_magmoms:R:1 pbc="T T T"
Si      -0.07276743       0.39348495      -2.27339894       0.00000000
Si      -0.03000618       2.15051525       0.85343532       0.00000000
Si      -2.05490205      -1.00825326       0.46794609       0.00000000
Si       1.88468784      -1.15683435       0.82805602       0.00000000
Si      -1.41167511      -3.22706529      -0.12078479       0.00000000
Si       0.55697139       1.77506170       3.05587579       0.00000000
Si       3.42233352       0.62317395       0.96524239       0.00000000
Si      -2.22500223       1.25219601      -2.57874481       0.00000000
Si       0.06485049      -1.74232953      -3.24161089       0.00000000
Si       1.39243662      -1.60523289       3.06830647       0.00000000
