10
Lattice="16.28999089631971 0.0 0.0 0.0 16.28999089631971 0.0 0.0 0.0 34.529650657227435" Properties=species:S:1:pos:R:3:initial_magmoms:R:1 pbc="T T T"
Si      -1.40247126       1.31691618       1.34810737       0.00000000
Si       1.27951434      -1.45557666       1.33319056       0.00000000
Si      -1.35827649      -1.35483930      -1.36195377       0.00000000
Si       1.35755973       1.36060596      -1.35881157       0.00000000
Si      -2.71433754       2.69457777      -0.01726483       0.00000000
Si       2.70829395       2.71327869       0.03635974       0.00000000
Si      -2.73284298      -2.69634198      -0.01460605       0.00000000
Si       2.71275741      -0.00026064      -2.72048911       0.00000000
Si      -0.00353493       2.71531494      -2.71807203       0.00000000
Si      -0.00182448      -2.71483276      -2.71928057       0.00000000
