10
Lattice="16.28999089631971 0.0 0.0 0.0 16.28999089631971 0.0 0.0 0.0 34.529650657227435" Properties=species:S:1:pos:R:3:initial_magmoms:R:1 pbc="T T T"
Si      -1.63830159       0.06978636       1.82185445       0.00000000
Si       0.34013520       2.10588975      -1.50110834       0.00000000
Si      -2.05679169      -0.69878236      -1.50604608       0.00000000
Si       2.16445230       0.22973787      -1.55721906       0.00000000
Si      -0.58173219      -2.73113972       0.25465632       0.00000000
Si      -0.74590281       2.70557352       0.68068338       0.00000000
Si      -1.13842665       0.94478742      -2.92797789       0.00000000
Si       3.34953351       0.20893554       0.46010785       0.00000000
Si      -3.53439243       0.17404236       0.19260650       0.00000000
Si       1.62583974      -1.72790378      -2.80222084       0.00000000
