10
Lattice="16.28999089631971 0.0 0.0 0.0 16.28999089631971 0.0 0.0 0.0 34.529650657227435" Properties=species:S:1:pos:R:3:initial_magmoms:R:1 pbc="T T T"
Si       1.54357524      -1.59861263      -0.76068863       0.00000000
Si      -1.28039400       0.89590113      -1.75562654       0.00000000
Si      -1.57864761      -1.39856166       1.03810000       0.00000000
Si       0.64140246       1.86527016       1.31250728       0.00000000
Si       0.38527479       0.36294120      -3.28977978       0.00000000
Si       0.29028780      -1.95420216      -2.75954216       0.00000000
Si      -3.48961122      -0.18308331       0.52060383       0.00000000
Si      -1.35321030       2.01067470       2.59366163       0.00000000
Si       1.39448916      -1.41344746       2.95843306       0.00000000
Si      -1.60945200       3.08592873      -1.02919134       0.00000000
