10
Lattice="16.28999089631971 0.0 0.0 0.0 16.28999089631971 0.0 0.0 0.0 34.529650657227435" Properties=species:S:1:pos:R:3:initial_magmoms:R:1 pbc="T T T"
Si       0.49656807      -0.77661990       2.14422344       0.00000000
Si       0.47920293      -1.51245549      -1.80852599       0.00000000
Si      -2.38615920      -0.36056775       0.28210740       0.00000000
Si       0.88457958       2.34697849      -0.18449203       0.00000000
Si      -2.97313677       0.01488580      -1.92033306       0.00000000
Si      -1.39448916       1.41344746      -2.95843306       0.00000000
Si      -2.94748002       1.67416891       1.21178424       0.00000000
Si      -0.00721647      -3.07341216       2.00089078       0.00000000
Si       0.14908608      -0.18516517      -3.71912169       0.00000000
Si      -0.75308670       3.27871762      -1.64592578       0.00000000
