10
Lattice="16.28999089631971 0.0 0.0 0.0 16.28999089631971 0.0 0.0 0.0 34.529650657227435" Properties=species:S:1:pos:R:3:initial_magmoms:R:1 pbc="T T T"
Si      -1.35944937      -1.35404109       1.35560031       0.00000000
Si       1.35798327      -1.35650088      -1.35635997       0.00000000
Si      -1.35692442       1.35840681      -1.35629091       0.00000000
Si       1.35609363       1.35723393       1.35991652       0.00000000
Si      -2.70940167      -0.00353493       2.71071721       0.00000000
Si      -2.71298547       0.00013032      -2.71385941       0.00000000
Si      -0.00063531      -2.71362078      -2.71347958       0.00000000
Si      -2.71349046      -2.71370223      -0.00013812       0.00000000
Si       2.71454931      -0.00087966      -2.71399753       0.00000000
Si       0.00135207      -2.71292031       2.71603478       0.00000000
