10
Lattice="16.28999089631971 0.0 0.0 0.0 16.28999089631971 0.0 0.0 0.0 34.529650657227435" Properties=species:S:1:pos:R:3:initial_magmoms:R:1 pbc="T T T"
Si      -1.35656604      -1.35562122       1.35763756       0.00000000
Si       1.36039419      -1.35363384      -1.35867345       0.00000000
Si       1.35840681       1.35910728       1.35718868       0.00000000
Si      -1.35640314       1.35923760      -1.36323137       0.00000000
Si       2.69434971      -0.01080027      -2.73141084       0.00000000
Si       0.00109143      -2.71318095       2.71413565       0.00000000
Si       2.71353933      -2.71386513      -0.00034530       0.00000000
Si      -2.71518462      -2.71274112       0.00051795       0.00000000
Si      -2.71454931       0.00087966       2.71399753       0.00000000
Si       2.71476108       2.71560816      -0.00058700       0.00000000
