10
Lattice="16.28999089631971 0.0 0.0 0.0 16.28999089631971 0.0 0.0 0.0 34.529650657227435" Properties=species:S:1:pos:R:3:initial_magmoms:R:1 pbc="T T T"
Si       1.35594702       1.34157924       1.37055166       0.00000000
Si      -1.36114353       1.35019665      -1.35801739       0.00000000
Si       1.35259128      -1.36404315      -1.35687791       0.00000000
Si      -1.35821133      -1.38478032       1.34392928       0.00000000
Si       2.71446786       2.70875007      -0.00131213       0.00000000
Si      -2.71360449       2.71029762       0.00220990       0.00000000
Si      -0.00242721       2.70935280      -2.71579307       0.00000000
Si       2.71194291      -0.00493587      -2.71589666       0.00000000
Si       2.71368594      -2.71875213       0.00238255       0.00000000
Si      -2.71801908      -0.00548973      -2.71617290       0.00000000
