10
Lattice="16.28999089631971 0.0 0.0 0.0 16.28999089631971 0.0 0.0 0.0 34.529650657227435" Properties=species:S:1:pos:R:3:initial_magmoms:R:1 pbc="T T T"
Si      -1.35609363      -1.35723393      -1.35991652       0.00000000
Si      -1.35259128       1.36404315       1.35687791       0.00000000
Si       1.36109466      -1.35470898       1.35926046       0.00000000
Si       1.35935163       1.35910728      -1.35901875       0.00000000
Si      -2.71080261      -0.02073717       2.70080719       0.00000000
Si      -2.71554300      -2.71127502      -0.00431621       0.00000000
Si      -2.71373481       2.71423980      -0.00113948       0.00000000
Si      -2.71301805       0.00117288      -2.71620743       0.00000000
Si       0.00188964      -2.71373481      -2.71627649       0.00000000
Si       2.71629234      -2.71557558      -0.00241708       0.00000000
