10
Lattice="16.28999089631971 0.0 0.0 0.0 16.28999089631971 0.0 0.0 0.0 34.529650657227435" Properties=species:S:1:pos:R:3:initial_magmoms:R:1 pbc="T T T"
Si      -1.34838683      -1.33263603       1.37888022       0.00000000
Si       1.36573731       1.38264633       1.37162899       0.00000000
Si      -1.39921652       1.29889944      -1.42224948       0.00000000
Si       1.33390665      -1.40067936      -1.46686182       0.00000000
Si       0.55703655       2.02512393      -2.63906884       0.00000000
Si       2.33088723       0.41589999      -2.92919476       0.00000000
Si      -2.69491652      -2.67991677      -0.00010704       0.00000000
Si       2.72696229      -2.67937920       0.01181951       0.00000000
Si       0.00768888      -2.69034237       2.73634513       0.00000000
Si      -2.70598726       0.02148651       2.73524018       0.00000000
