10
Lattice="16.28999089631971 0.0 0.0 0.0 16.28999089631971 0.0 0.0 0.0 34.529650657227435" Properties=species:S:1:pos:R:3:initial_magmoms:R:1 pbc="T T T"
Si       1.34838846       1.34688978       1.37566205       0.00000000
Si      -1.36493910      -1.36990755       1.36471615       0.00000000
Si       1.31797503      -1.34234487      -1.44123044       0.00000000
Si      -1.30885263       1.31579217      -1.50876012       0.00000000
Si      -0.44628084      -2.40345918      -2.61202969       0.00000000
Si      -2.22065280      -0.65117646      -2.82578530       0.00000000
Si       2.68258833       2.69757036       0.00080109       0.00000000
Si      -2.71819827       2.69639688      -0.02121848       0.00000000
Si       2.69299764      -2.73502584      -0.01283123       0.00000000
Si      -0.00632052       2.69996812       2.72977759       0.00000000
