10
Lattice="16.28999089631971 0.0 0.0 0.0 16.28999089631971 0.0 0.0 0.0 34.529650657227435" Properties=species:S:1:pos:R:3:initial_magmoms:R:1 pbc="T T T"
Si      -1.19667969      -0.67070817       1.87889746       0.00000000
Si       0.57466233      -1.98477360      -1.11748371       0.00000000
Si       1.84345785       1.25581239       0.84974065       0.00000000
Si      -1.40644602       0.68429403      -1.82530741       0.00000000
Si      -3.23128440      -1.07610111       0.71977097       0.00000000
Si       0.99766476      -1.14697890      -3.33404681       0.00000000
Si      -3.55302819       0.66973077      -0.82463758       0.00000000
Si      -0.00679293      -2.64486069       2.74562671       0.00000000
Si       2.12802786       3.21766596      -0.43686938       0.00000000
Si      -1.73319084       1.25522595       3.24502932       0.00000000
