10
Lattice="16.28999089631971 0.0 0.0 0.0 16.28999089631971 0.0 0.0 0.0 34.529650657227435" Properties=species:S:1:pos:R:3:initial_magmoms:R:1 pbc="T T T"
Si      -1.35723393       1.35713137      -1.35691244       0.00000000
Si       1.35713619       1.35720956       1.35794833       0.00000000
Si       1.35777150      -1.35752776      -1.35718868       0.00000000
Si      -1.35796698      -1.35782098       1.35739586       0.00000000
Si      -2.71088406      -0.00325861       2.71530966       0.00000000
Si      -2.71379997      -0.00146835      -2.71406659       0.00000000
Si      -0.00133578      -2.71350736      -2.71455000       0.00000000
Si      -0.00475668      -2.71272544       2.71575854       0.00000000
Si       0.00483813       2.71310608       2.71582760       0.00000000
Si      -2.71438641      -2.71487572       0.00024171       0.00000000
