10
Lattice="16.28999089631971 0.0 0.0 0.0 16.28999089631971 0.0 0.0 0.0 34.529650657227435" Properties=species:S:1:pos:R:3:initial_magmoms:R:1 pbc="T T T"
Si      -1.35488817      -1.35740823       1.35805192       0.00000000
Si      -1.35314514       1.36023129      -1.35832816       0.00000000
Si       1.35987291       1.35804843       1.35770662       0.00000000
Si       1.36231641      -1.35860555      -1.36333496       0.00000000
Si      -2.71244790       0.00068418       2.71448094       0.00000000
Si      -2.71353933       2.71386513       0.00034530       0.00000000
Si      -2.71145421      -2.71600795       0.00089777       0.00000000
Si       0.00234576      -2.71453960       2.71496436       0.00000000
Si       0.00275301       2.71490769       2.71517154       0.00000000
Si       2.71769398       2.71332756       0.00041436       0.00000000
