10
Lattice="16.28999089631971 0.0 0.0 0.0 16.28999089631971 0.0 0.0 0.0 34.529650657227435" Properties=species:S:1:pos:R:3:initial_magmoms:R:1 pbc="T T T"
Si      -1.35635035       1.35770634       1.35739586       0.00000000
Si       1.35711501       1.35752715      -1.35701603       0.00000000
Si       1.35776661      -1.35734796       1.35753397       0.00000000
Si      -1.35711498      -1.36008468      -1.35705056       0.00000000
Si      -0.00070047       2.71340901       2.71351411       0.00000000
Si       0.00048544      -2.71420722      -2.71341052       0.00000000
Si      -2.71459396       2.71489140       0.00013812       0.00000000
Si      -2.71400752       0.00096111       2.71555136       0.00000000
Si       2.71506570       2.71498914       0.00010359       0.00000000
Si      -2.71493605      -2.71536381       0.00024171       0.00000000
