10
Lattice="16.28999089631971 0.0 0.0 0.0 16.28999089631971 0.0 0.0 0.0 34.529650657227435" Properties=species:S:1:pos:R:3:initial_magmoms:R:1 pbc="T T T"
Si       1.34379535       1.34826782       1.37445351       0.00000000
Si       1.35350745      -1.35607648      -1.35781021       0.00000000
Si      -1.35993807       1.35888890      -1.35646355       0.00000000
Si      -1.35345465      -1.34604184       1.37580017       0.00000000
Si      -0.20289195       2.57552221       2.67753420       0.00000000
Si       2.71273202       0.00169550      -2.71413565       0.00000000
Si      -2.71223613       2.71478542       0.00141572       0.00000000
Si      -0.00188215      -2.71326154      -2.71430830       0.00000000
Si       2.71558277      -2.71200721       0.00524851       0.00000000
Si      -0.00217835       2.71703344      -2.71392847       0.00000000
