10
Lattice="16.28999089631971 0.0 0.0 0.0 16.28999089631971 0.0 0.0 0.0 34.529650657227435" Properties=species:S:1:pos:R:3:initial_magmoms:R:1 pbc="T T T"
Si      -1.35674523      -1.35571896      -1.35736133       0.00000000
Si       1.35845568       1.35850455      -1.35667073       0.00000000
Si      -1.35519768       1.36086660       1.36167753       0.00000000
Si       1.36288656      -1.35783666       1.35894969       0.00000000
Si       0.00081450      -2.71381137      -2.71379035       0.00000000
Si      -2.71440270       0.00184077      -2.71385941       0.00000000
Si       2.71518462      -2.71373318       0.00107042       0.00000000
Si      -2.71458189      -2.71457212       0.00120854       0.00000000
Si       2.71557558       0.00164529      -2.71413565       0.00000000
Si       0.00057015       2.71656927      -2.71430830       0.00000000
