10
Lattice="16.28999089631971 0.0 0.0 0.0 16.28999089631971 0.0 0.0 0.0 34.529650657227435" Properties=species:S:1:pos:R:3:initial_magmoms:R:1 pbc="T T T"
Si      -0.98868897      -1.68287103       1.42120465       0.00000000
Si       1.73886369       1.00413189       1.43795500       0.00000000
Si      -1.81278378       1.72841787       0.22928292       0.00000000
Si       0.70266493      -1.07318520      -2.51849054       0.00000000
Si       2.19316247       2.37073257      -1.40615175       0.00000000
Si      -2.14855326       2.04389001      -1.99640193       0.00000000
Si      -2.30479065      -0.28354374       2.86396476       0.00000000
Si       0.43560161       2.45070018       2.86175831       0.00000000
Si      -1.74788442      -3.58735122       0.05003349       0.00000000
Si      -1.02856689       3.67948746       1.43500271       0.00000000
