10
Lattice="16.28999089631971 0.0 0.0 0.0 16.28999089631971 0.0 0.0 0.0 34.529650657227435" Properties=species:S:1:pos:R:3:initial_magmoms:R:1 pbc="T T T"
Si       1.54937678      -0.61457283      -1.56949163       0.00000000
Si       1.54390008       1.34271954       1.21663289       0.00000000
Si      -1.31597136      -1.58465862       1.19576661       0.00000000
Si      -1.39852908       0.97801902      -1.75488143       0.00000000
Si      -2.60488503       2.56135815      -0.41281675       0.00000000
Si      -2.58514155      -0.11176569       2.61408317       0.00000000
Si       0.14543712       2.61255762       2.63214909       0.00000000
Si      -2.63335995      -0.94206699      -2.58725365       0.00000000
Si       1.90575800      -2.89341351      -1.64538785       0.00000000
Si       0.14819714      -2.81344590       2.62252222       0.00000000
