10
Lattice="16.28999089631971 0.0 0.0 0.0 16.28999089631971 0.0 0.0 0.0 34.529650657227435" Properties=species:S:1:pos:R:3:initial_magmoms:R:1 pbc="T T T"
Si       1.35683962       1.35586557      -1.35611826       0.00000000
Si       1.35824362      -1.35718506       1.35725774       0.00000000
Si      -1.35817875       1.35791811       1.35725774       0.00000000
Si      -1.35899325      -1.35883035      -1.35784474       0.00000000
Si       2.71389349      -0.00148239       2.71337599       0.00000000
Si      -0.00104256       2.71278999       2.71513701       0.00000000
Si       0.00058644      -2.71393029       2.71541325       0.00000000
Si       2.71459396      -2.71489140      -0.00013812       0.00000000
Si       2.71458908       2.71497285       0.00006906       0.00000000
Si       0.00384444       2.71249677      -2.71745050       0.00000000
