10
Lattice="16.28999089631971 0.0 0.0 0.0 16.28999089631971 0.0 0.0 0.0 34.529650657227435" Properties=species:S:1:pos:R:3:initial_magmoms:R:1 pbc="T T T"
Si       0.19940589       1.86904944       1.36191924       0.00000000
Si       1.84671585      -1.40066307       0.13376794       0.00000000
Si      -1.79403399      -0.92683584      -1.20491283       0.00000000
Si      -2.36705103      -0.99461853       1.06548203       0.00000000
Si      -1.01657745       1.12700736      -2.38966034       0.00000000
Si       3.15229649       0.31385943       1.17117735       0.00000000
Si      -0.88637148      -2.20553568       2.56755720       0.00000000
Si       1.72351458      -2.28165885      -2.05530954       0.00000000
Si      -0.64583334      -2.70456354      -2.19315199       0.00000000
Si      -3.19868811       1.20037752       1.14545274       0.00000000
