10
Lattice="16.28999089631971 0.0 0.0 0.0 16.28999089631971 0.0 0.0 0.0 34.529650657227435" Properties=species:S:1:pos:R:3:initial_magmoms:R:1 pbc="T T T"
Si       1.47512466      -0.12359223       1.81584628       0.00000000
Si      -1.64772698      -1.66845438       0.41684218       0.00000000
Si       0.90168408      -0.81565659      -2.06566845       0.00000000
Si      -0.97412571       2.27354643      -0.27226645       0.00000000
Si       1.64884122      -2.40209082       1.25715622       0.00000000
Si      -2.31680738       1.15339716      -1.89547170       0.00000000
Si      -0.94610528      -0.11033217      -3.40607570       0.00000000
Si      -3.47730317      -0.42896457      -0.50596325       0.00000000
Si       2.84112261       0.91675233      -2.17536921       0.00000000
Si      -1.76668797      -2.34505953       2.70205026       0.00000000
