10
Lattice="16.28999089631971 0.0 0.0 0.0 16.28999089631971 0.0 0.0 0.0 34.529650657227435" Properties=species:S:1:pos:R:3:initial_magmoms:R:1 pbc="T T T"
Si      -1.35321030       1.35490446      -1.35836269       0.00000000
Si      -1.35184194      -1.36397799       1.35428819       0.00000000
Si       1.36158336      -1.36163223      -1.35798286       0.00000000
Si       1.36837629       1.36500426       1.37445351       0.00000000
Si       2.55669921      -0.14390586       2.80342937       0.00000000
Si      -2.70612738       2.70946683      -0.00044889       0.00000000
Si      -2.70962973      -0.00215028      -2.71551683       0.00000000
Si      -2.70770751      -2.71795392      -0.00089777       0.00000000
Si       0.00475668       2.71272544      -2.71575854       0.00000000
Si       0.00444717      -2.71650411      -2.71586213       0.00000000
