10
Lattice="16.28999089631971 0.0 0.0 0.0 16.28999089631971 0.0 0.0 0.0 34.529650657227435" Properties=species:S:1:pos:R:3:initial_magmoms:R:1 pbc="T T T"
Si      -1.33224507       0.84872529       1.80441696       0.00000000
Si       0.87532686       1.85196123      -1.25246019       0.00000000
Si      -1.87693380      -0.96269013      -1.29313614       0.00000000
Si       1.68515163      -1.82573433       0.17185417       0.00000000
Si      -0.45424665      -2.16767772      -2.71872809       0.00000000
Si       2.26597158       0.56130453      -2.69856277       0.00000000
Si       0.11738574       0.55083006       3.71231935       0.00000000
Si       3.45429450      -0.94760559      -1.26958690       0.00000000
Si       0.87260643      -3.49803315      -1.27928974       0.00000000
Si      -2.66797620      -2.82338280       0.03411531       0.00000000
