10
Lattice="16.28999089631971 0.0 0.0 0.0 16.28999089631971 0.0 0.0 0.0 34.529650657227435" Properties=species:S:1:pos:R:3:initial_magmoms:R:1 pbc="T T T"
Si      -1.67762565      -0.38416707      -1.57016768       0.00000000
Si       0.04108338      -1.90566936       1.38805820       0.00000000
Si       1.96805584       0.35598537      -1.25011217       0.00000000
Si      -0.13128111       2.06115741       1.21744710       0.00000000
Si      -0.56785311      -0.68927877       3.31225859       0.00000000
Si       0.94625352       1.11436632       3.12604008       0.00000000
Si      -2.16101511       1.89335412      -2.09184194       0.00000000
Si       3.24596888       1.59373215       0.30627817       0.00000000
Si       2.97516392      -1.74324177      -1.51885659       0.00000000
Si       0.50565789       3.76253618      -0.32796281       0.00000000
