10
Lattice="16.28999089631971 0.0 0.0 0.0 16.28999089631971 0.0 0.0 0.0 34.529650657227435" Properties=species:S:1:pos:R:3:initial_magmoms:R:1 pbc="T T T"
Si       0.40667985       0.71211965       2.24125182       0.00000000
Si       0.22164174       2.08090808      -1.22507816       0.00000000
Si       1.77735207      -1.53068985      -0.69667062       0.00000000
Si      -2.25999315      -1.15706241       0.47737269       0.00000000
Si       1.86907780      -2.69443116       1.31910245       0.00000000
Si      -0.75929319       2.74938452       2.36497162       0.00000000
Si      -0.36598743       3.78112796       0.29046358       0.00000000
Si      -0.23025915      -0.98925912       3.78666173       0.00000000
Si      -0.96343947       2.10171041      -3.24240507       0.00000000
Si      -0.09897804      -3.05041653       2.56921462       0.00000000
