10
Lattice="16.28999089631971 0.0 0.0 0.0 16.28999089631971 0.0 0.0 0.0 34.529650657227435" Properties=species:S:1:pos:R:3:initial_magmoms:R:1 pbc="T T T"
Si       0.23410359       1.16142813       2.01825921       0.00000000
Si       2.13761357      -0.65625894      -0.75019161       0.00000000
Si      -1.51410663      -1.80364509       0.18621851       0.00000000
Si      -1.07753463       0.94679109      -1.90859298       0.00000000
Si       2.19798431       2.25725840       1.40580645       0.00000000
Si      -0.94625352      -1.11436632      -3.12604008       0.00000000
Si      -3.55400559      -0.56894454      -0.02575913       0.00000000
Si      -0.90517014      -3.02003568      -1.73798188       0.00000000
Si       2.29971536       0.47936583      -2.81976191       0.00000000
Si       3.68032544       0.64153278       0.52547252       0.00000000
