10
Lattice="16.28999089631971 0.0 0.0 0.0 16.28999089631971 0.0 0.0 0.0 34.529650657227435" Properties=species:S:1:pos:R:3:initial_magmoms:R:1 pbc="T T T"
Si       0.63506565      -1.27161369       1.82896756       0.00000000
Si      -0.55130247      -1.40680440      -1.78452787       0.00000000
Si      -2.00022629       0.92748744       0.82115008       0.00000000
Si       1.56452418       1.75808196      -0.01754107       0.00000000
Si       0.81920781       0.45947574       3.32745165       0.00000000
Si      -0.20171907      -3.43850949      -0.67971655       0.00000000
Si      -1.04557365       1.86888654       2.81786278       0.00000000
Si      -0.73927278      -3.09338955       1.65334966       0.00000000
Si      -3.16909637       1.45723824      -1.13112293       0.00000000
Si      -2.80219945      -0.70090983      -2.31770051       0.00000000
