10
Lattice="16.28999089631971 0.0 0.0 0.0 16.28999089631971 0.0 0.0 0.0 34.529650657227435" Properties=species:S:1:pos:R:3:initial_magmoms:R:1 pbc="T T T"
Si      -1.35625164      -1.35859740       1.35601467       0.00000000
Si      -1.35607571       1.35770634      -1.35746491       0.00000000
Si       1.35892809       1.35658233       1.35601467       0.00000000
Si       1.35780408      -1.35781223      -1.36195377       0.00000000
Si      -2.71367614       2.71182888      -0.00110495       0.00000000
Si      -0.00768888       2.69034237      -2.73634513       0.00000000
Si       0.00120546       2.71456560       2.71347958       0.00000000
Si      -2.71412845      -0.00068418       2.71392847       0.00000000
Si      -2.71304440      -2.71656280      -0.00082871       0.00000000
Si       2.71704168      -0.00045612       2.71268540       0.00000000
