10
Lattice="16.290000149 0.0 0.0 0.0 16.290000149 0.0 0.0 0.0 29.1751946751" Properties=species:S:1:pos:R:3:initial_magmoms:R:1 pbc="T T T"
Si      -1.36971208       1.38720754       1.31019964       0.00000000
Si      -1.35956341      -1.34583094      -1.36764560       0.00000000
Si       1.35338950       1.34892604      -1.37248868       0.00000000
Si       1.34702011      -1.33244056       1.40793654       0.00000000
Si       0.01454697       2.73587295       2.64998293       0.00000000
Si       2.67035456      -2.72674729       0.04285836       0.00000000
Si      -2.69459408      -2.70935608       0.00116701       0.00000000
Si      -0.06704964      -2.61515753       2.78888603       0.00000000
Si      -0.00985545      -2.69525220      -2.74057191       0.00000000
Si       2.72507267       2.71423982      -0.03903641       0.00000000
