10
Lattice="16.290000149 0.0 0.0 0.0 16.290000149 0.0 0.0 0.0 29.1751946751" Properties=species:S:1:pos:R:3:initial_magmoms:R:1 pbc="T T T"
Si      -1.08144424      -1.17025732       1.70365632       0.00000000
Si       0.88233157      -1.77349232      -1.28630516       0.00000000
Si       1.87193279       1.46318410       0.15066071       0.00000000
Si      -1.59964543       1.29714013      -1.21573036       0.00000000
H        0.47457657       2.28428156       1.78657222       0.00000000
H       -1.23742099      -0.37608723       2.98010026       0.00000000
H        2.58734072       1.55391940       1.47466021       0.00000000
Si       2.00083556      -0.34127550      -2.84186819       0.00000000
Si      -3.29147598      -1.09535590       0.89433642       0.00000000
Si      -0.28707867       2.66040137      -2.60073520       0.00000000
