10
Lattice="16.290000149 0.0 0.0 0.0 16.290000149 0.0 0.0 0.0 29.1751946751" Properties=species:S:1:pos:R:3:initial_magmoms:R:1 pbc="T T T"
Si      -1.39797523       1.42514695      -1.22357849       0.00000000
Si      -1.32709744      -1.38223909       1.37549956       0.00000000
Si       1.19900917      -1.47271375      -1.42975959       0.00000000
Si       1.30785895       1.44710587       1.36941362       0.00000000
H        3.22058190       1.73087768      -0.50922385       0.00000000
Si      -0.00420282       2.65641032      -2.65199602       0.00000000
Si       2.67030569      -2.68213223       0.02450716       0.00000000
Si       2.53128683      -0.14152752      -2.82751399       0.00000000
Si      -2.89940826       0.13559796      -2.50641180       0.00000000
Si       2.73489555       0.07988616       2.70363028       0.00000000
