10
Lattice="16.290000149 0.0 0.0 0.0 16.290000149 0.0 0.0 0.0 29.1751946751" Properties=species:S:1:pos:R:3:initial_magmoms:R:1 pbc="T T T"
Si      -1.34024347       1.36109467      -1.36624519       0.00000000
Si       1.33516425      -1.34801380      -1.38856422       0.00000000
Si       1.34581139       1.38324907       1.34742719       0.00000000
Si      -1.33801174      -1.37274202       1.36802488       0.00000000
Si       2.67341708      -2.70848945      -0.02558665       0.00000000
Si      -2.67983534       2.72634329      -0.01164090       0.00000000
Si       2.71070489       0.03264516       2.70334436       0.00000000
Si      -2.70493823      -2.71124246      -0.00163381       0.00000000
Si      -2.71800281      -0.02485854       2.69993087       0.00000000
Si      -2.70946685       0.01145187      -2.71959495       0.00000000
