10
Lattice="16.290000149 0.0 0.0 0.0 16.290000149 0.0 0.0 0.0 29.1751946751" Properties=species:S:1:pos:R:3:initial_magmoms:R:1 pbc="T T T"
Si      -1.52148601       1.31461279       1.19930473       0.00000000
Si       1.41406975       1.28271697      -1.38094949       0.00000000
Si      -1.22912938      -1.43681711      -1.42555836       0.00000000
Si       0.98473051      -0.84689104       1.99106116       0.00000000
Si      -0.07915311       2.64472388       2.40747871       0.00000000
Si      -0.76145977      -1.17973647       3.47990052       0.00000000
Si       1.12576933      -3.14712051       1.74940302       0.00000000
Si      -2.68270238      -0.12725259       2.70319849       0.00000000
Si      -2.57305439      -2.81570046      -0.10917358       0.00000000
Si       0.06704964       2.61515753      -2.78888603       0.00000000
