10
Lattice="16.290000149 0.0 0.0 0.0 16.290000149 0.0 0.0 0.0 29.1751946751" Properties=species:S:1:pos:R:3:initial_magmoms:R:1 pbc="T T T"
Si      -1.25920072      -1.36759438       1.42519075       0.00000000
Si      -1.45171594       1.41651325      -1.21567201       0.00000000
Si       0.95659768      -1.27035937      -1.75488796       0.00000000
Si       1.38807091       1.37976301       1.34089778       0.00000000
Si       2.34999542       0.16487109      -2.93123181       0.00000000
Si      -2.68636763       0.00806355       2.71835792       0.00000000
Si      -2.06876486      -3.22680468       0.24465268       0.00000000
Si       2.73678518       0.01736514       2.71691958       0.00000000
Si      -0.18423990       2.89760007      -2.54101358       0.00000000
Si       0.02401146       2.72756504       2.73082448       0.00000000
