10
Lattice="16.290000149 0.0 0.0 0.0 16.290000149 0.0 0.0 0.0 29.1751946751" Properties=species:S:1:pos:R:3:initial_magmoms:R:1 pbc="T T T"
Si       1.66680911      -1.68875174      -0.25175275       0.00000000
Si      -1.86132800      -0.84597229      -1.24904843       0.00000000
Si      -0.63027640       0.33184359       2.32867651       0.00000000
Si       0.68981635       1.85916143      -1.42001508       0.00000000
H        2.21154671       0.78967405       1.12972189       0.00000000
H       -1.07129557       2.49613301       0.09837876       0.00000000
H       -2.61026075      -0.28992942       1.24598504       0.00000000
H        0.59114782      -1.62395011       2.54851161       0.00000000
H       -0.49713822       2.36418401      -2.22221623       0.00000000
H       -3.26124174       0.13165578       1.20096771       0.00000000
