10
Lattice="16.290000149 0.0 0.0 0.0 16.290000149 0.0 0.0 0.0 29.1751946751" Properties=species:S:1:pos:R:3:initial_magmoms:R:1 pbc="T T T"
Si      -1.41406975      -1.28271697       1.38094949       0.00000000
Si       1.32333445      -1.39430672      -1.36507818       0.00000000
Si       1.40045131       1.36979353       1.31425499       0.00000000
Si      -1.34702011       1.33244056      -1.40793654       0.00000000
Si       0.00835677       2.72306900       2.62716793       0.00000000
Si      -2.64319913      -2.71953407      -0.04460887       0.00000000
Si       2.58844844      -2.78350491       0.06409790       0.00000000
Si       2.69066819      -0.03595203      -2.74176809       0.00000000
Si      -2.71673219       2.71964810      -0.09773690       0.00000000
Si       2.73856079       2.71865441      -0.05931317       0.00000000
