10
Lattice="16.290000149 0.0 0.0 0.0 16.290000149 0.0 0.0 0.0 29.1751946751" Properties=species:S:1:pos:R:3:initial_magmoms:R:1 pbc="T T T"
Si      -1.34226343       1.35547462       1.34335638       0.00000000
Si       1.39797523      -1.42514695       1.22357849       0.00000000
Si       1.39377241       1.23126337      -1.42841753       0.00000000
Si      -1.50143302      -1.28954899      -1.28283331       0.00000000
H        0.50723802       2.07985835      -2.31645211       0.00000000
Si       2.70583418       0.02195892       2.59299211       0.00000000
Si      -2.55757889       2.77050549      -0.10543915       0.00000000
Si      -2.66460419      -0.04766454       2.68504568       0.00000000
Si       2.42681906      -0.25643718      -2.89817631       0.00000000
Si       0.07087779      -2.80738605       2.59907805       0.00000000
