10
Lattice="16.290000149 0.0 0.0 0.0 16.290000149 0.0 0.0 0.0 29.1751946751" Properties=species:S:1:pos:R:3:initial_magmoms:R:1 pbc="T T T"
Si      -1.30487788       1.38031687      -1.37415167       0.00000000
Si       1.37921893       1.36044307       1.33345227       0.00000000
Si       1.39447288      -1.33824795      -1.34868172       0.00000000
Si      -1.38192958      -1.33583540       1.38258330       0.00000000
Si       0.08335372      -2.63192727       2.65555539       0.00000000
Si      -2.67757103      -0.00374670      -2.68376781       0.00000000
Si      -2.62967843       2.75085975      -0.00131288       0.00000000
Si       0.02534724      -2.70993926      -2.67956658       0.00000000
Si      -2.61500114       0.09259236       2.79898065       0.00000000
Si       2.72489348       0.02490741       2.71081321       0.00000000
