10
Lattice="16.290000149 0.0 0.0 0.0 16.290000149 0.0 0.0 0.0 29.1751946751" Properties=species:S:1:pos:R:3:initial_magmoms:R:1 pbc="T T T"
H       -0.90158635       0.74205838       0.97742737       0.00000000
Si       1.15214284       1.63911610      -1.18109941       0.00000000
Si       1.40246020      -1.17051796       1.46004344       0.00000000
Si      -1.59088141      -1.13034682      -1.34086277       0.00000000
Si      -1.98058709       2.45592929       1.76436260       0.00000000
Si      -0.61569685       2.79603192      -2.21215079       0.00000000
Si       2.61829335       0.42831297      -2.51840280       0.00000000
Si      -0.05685210      -2.34924608       2.87639703       0.00000000
Si      -2.22949829       2.96966703      -0.53425616       0.00000000
Si       2.86233547      -2.45120519       0.11524202       0.00000000
