10
Lattice="16.290000149 0.0 0.0 0.0 16.290000149 0.0 0.0 0.0 29.1751946751" Properties=species:S:1:pos:R:3:initial_magmoms:R:1 pbc="T T T"
Si      -1.46959585      -1.37774305       1.21858953       0.00000000
Si       1.33745788      -1.33472116      -1.40994963       0.00000000
Si      -1.34323269       1.36150192      -1.38068691       0.00000000
Si       1.39872457       1.42021108       1.28306671       0.00000000
H        2.75004525      -0.89787223       2.25868522       0.00000000
Si      -0.11086974       2.66204666       2.52560908       0.00000000
Si      -0.07307694      -2.61698852       2.60344850       0.00000000
Si      -2.81369028      -0.07276743       2.63828368       0.00000000
Si      -2.71897090       0.00376299      -2.74121377       0.00000000
Si      -0.00545715       2.71117730      -2.75165849       0.00000000
