10
Lattice="16.290000149 0.0 0.0 0.0 16.290000149 0.0 0.0 0.0 29.1751946751" Properties=species:S:1:pos:R:3:initial_magmoms:R:1 pbc="T T T"
Si       1.24928011      -1.37052658       1.41325810       0.00000000
Si      -1.28734984       1.44878374       1.32836704       0.00000000
Si       1.90760789       0.79016275      -1.12222678       0.00000000
Si      -1.83879893      -0.88145191      -1.18588414       0.00000000
H        0.69502915      -1.82847107      -1.92183426       0.00000000
Si       1.25467210       1.21272535      -3.25409035       0.00000000
Si       2.66890475       0.05852997       2.64904349       0.00000000
Si      -2.71474481       0.05836707       2.60968615       0.00000000
Si       2.74711305      -2.60617522       0.13318185       0.00000000
Si      -3.47182257       0.85411729      -1.26899143       0.00000000
