10
Lattice="16.290000149 0.0 0.0 0.0 16.290000149 0.0 0.0 0.0 29.1751946751" Properties=species:S:1:pos:R:3:initial_magmoms:R:1 pbc="T T T"
Si      -1.33351570      -1.33999261       1.32891261       0.00000000
Si       1.49783293      -1.23564864      -1.28007625       0.00000000
Si      -1.24928011       1.37052658      -1.41325810       0.00000000
Si       1.41962464       1.42905655       1.23578539       0.00000000
Si       0.65832778       2.16068933      -2.53548488       0.00000000
H       -0.55425097      -0.45794448      -3.33509236       0.00000000
Si       2.36353241       0.49233267      -2.66247283       0.00000000
Si       0.10042785      -2.68636763       2.59076896       0.00000000
Si      -2.66372453       0.07962552       2.61513024       0.00000000
Si      -2.69415425      -2.62264091      -0.08091448       0.00000000
