10
Lattice="16.290000149 0.0 0.0 0.0 16.290000149 0.0 0.0 0.0 29.1751946751" Properties=species:S:1:pos:R:3:initial_magmoms:R:1 pbc="T T T"
Si      -1.37999107       1.34788348       1.33190599       0.00000000
Si      -1.36692649      -1.33850044      -1.36965869       0.00000000
Si       1.33801174       1.37274202      -1.36802488       0.00000000
Si       1.33682257      -1.36563958       1.37809032       0.00000000
Si      -2.67920003       2.64945449      -0.12694127       0.00000000
Si       2.66015702      -2.69951366      -0.02824159       0.00000000
Si       0.00876402       2.70451469       2.65917312       0.00000000
Si      -2.72389979      -0.03385062       2.68939862       0.00000000
Si       2.72630583       0.00975771       2.68866924       0.00000000
Si      -0.01793529      -2.68460831      -2.73561213       0.00000000
