10
Lattice="16.290000149 0.0 0.0 0.0 16.290000149 0.0 0.0 0.0 29.1751946751" Properties=species:S:1:pos:R:3:initial_magmoms:R:1 pbc="T T T"
Si      -0.51587172      -0.91002457      -2.09337857       0.00000000
Si       2.05703606       1.00758538       0.72482854       0.00000000
Si      -1.41357291       1.94976641       0.00350102       0.00000000
Si      -0.68069232      -1.76313188       1.50719056       0.00000000
H        1.45142272       1.57100761      -2.37596950       0.00000000
Si      -1.94378798      -0.33573690       2.83395237       0.00000000
H        2.85294918      -0.45722772      -1.91946523       0.00000000
Si       0.25635573       1.20532969      -3.26805943       0.00000000
Si       1.05000454       2.24891597       2.56668775       0.00000000
Si      -3.08325720       1.16564725       1.45053233       0.00000000
