10
Lattice="16.290000149 0.0 0.0 0.0 16.290000149 0.0 0.0 0.0 29.1751946751" Properties=species:S:1:pos:R:3:initial_magmoms:R:1 pbc="T T T"
Si       1.42910542      -1.23041629      -1.28545908       0.00000000
Si      -1.23168691       1.52940295      -1.23702825       0.00000000
Si       1.48204792       1.00965421       1.47524372       0.00000000
Si      -1.11850399      -1.43221681       1.55556303       0.00000000
H        2.07311429      -2.07052418      -0.20469317       0.00000000
Si      -2.00083556       0.34127550       2.84186819       0.00000000
Si      -0.12890277       1.80445961       2.99252889       0.00000000
Si       2.46190772      -0.84895336       2.36993024       0.00000000
Si      -0.01322748      -2.56052738      -2.49363306       0.00000000
Si       0.69703282      -2.33207642       2.70162303       0.00000000
