10
Lattice="16.290000149 0.0 0.0 0.0 16.290000149 0.0 0.0 0.0 29.1751946751" Properties=species:S:1:pos:R:3:initial_magmoms:R:1 pbc="T T T"
Si       1.38970643      -1.34840476       1.32954280       0.00000000
Si       1.37519204       1.34788348      -1.35040306       0.00000000
Si      -1.31435032      -1.36681246      -1.39390328       0.00000000
Si      -1.37045491       1.33913575       1.37987001       0.00000000
Si       0.01929062      -2.69773805       2.67276876       0.00000000
Si      -2.66676425      -2.71989245      -0.04090362       0.00000000
Si      -2.70294434       2.70562079       0.00930689       0.00000000
Si       0.02885774       2.70851552      -2.70512405       0.00000000
Si      -2.68316828      -0.01027899      -2.73409502       0.00000000
Si       2.70746970      -2.71303436      -0.05942987       0.00000000
