10
Lattice="16.290000149 0.0 0.0 0.0 16.290000149 0.0 0.0 0.0 29.1751946751" Properties=species:S:1:pos:R:3:initial_magmoms:R:1 pbc="T T T"
Si      -1.28278864      -1.44473014       1.28119950       0.00000000
Si       1.29209023      -1.41617377      -1.34582256       0.00000000
Si      -1.43286841       1.62951869      -0.92517460       0.00000000
Si       1.19475748       1.14523979       1.69181119       0.00000000
Si      -0.79816114       2.03241926       2.66868423       0.00000000
Si      -2.30816270       0.17915319       2.60096861       0.00000000
Si      -0.08483832       2.64285444      -2.56155292       0.00000000
Si       2.63249595       2.56537920       0.34464657       0.00000000
Si       0.24195537      -2.43970706       2.78678542       0.00000000
Si       1.76567312      -0.59193234       3.21382274       0.00000000
