10
Lattice="16.290000149 0.0 0.0 0.0 16.290000149 0.0 0.0 0.0 29.1751946751" Properties=species:S:1:pos:R:3:initial_magmoms:R:1 pbc="T T T"
Si       1.33129212       1.36019872       1.37841125       0.00000000
Si      -1.29559258      -1.31450527       1.46888353       0.00000000
Si      -1.38794059       1.36019872      -1.35636939       0.00000000
Si       1.40025095      -1.34939845      -1.36912478       0.00000000
Si      -0.10611306      -2.73419508      -2.53688004       0.00000000
Si       0.07137170       2.53892684      -2.77272298       0.00000000
Si      -2.68555313      -2.65945655       0.19336736       0.00000000
Si       2.67714749       2.68908806      -0.00297003       0.00000000
Si       2.70052364       0.01138671       2.74217655       0.00000000
Si       2.75906991      -2.68843646       0.01202893       0.00000000
