10
Lattice="16.290000149 0.0 0.0 0.0 16.290000149 0.0 0.0 0.0 29.1751946751" Properties=species:S:1:pos:R:3:initial_magmoms:R:1 pbc="T T T"
Si      -1.35643247       1.40778181      -1.31337974       0.00000000
Si       1.17375967       1.46750095       1.44989631       0.00000000
Si      -1.48742851      -1.19985625       1.43501988       0.00000000
Si       1.00703152      -1.24133059      -1.84185921       0.00000000
Si      -2.46357745      -0.29914956      -2.56318673       0.00000000
Si      -1.05000454      -2.24891597      -2.56668775       0.00000000
Si       2.40544658       0.49363587      -2.75443013       0.00000000
Si      -0.12860955      -2.53889426       2.81617359       0.00000000
Si       2.54752796       0.11622915       2.81098916       0.00000000
Si       2.47363652       2.95137336       0.17594655       0.00000000
