10
Lattice="16.290000149 0.0 0.0 0.0 16.290000149 0.0 0.0 0.0 29.1751946751" Properties=species:S:1:pos:R:3:initial_magmoms:R:1 pbc="T T T"
Si       1.34803009       1.01333575      -1.63637832       0.00000000
Si       1.43286841      -1.62951869       0.92517460       0.00000000
Si      -1.83454724      -1.17665929      -1.00534803       0.00000000
Si      -0.10896381       1.72577891       1.80501094       0.00000000
H       -2.25442199       1.47484774       0.49183543       0.00000000
Si       2.77446396       2.28090953      -0.23092167       0.00000000
Si       0.63470728       0.40290057       3.59385883       0.00000000
Si       2.62762589      -0.48427890       2.61698579       0.00000000
Si      -2.89843086       2.31495563      -0.58893048       0.00000000
Si       0.15007977      -3.07424883       2.20637410       0.00000000
