10
Lattice="16.290000149 0.0 0.0 0.0 16.290000149 0.0 0.0 0.0 29.1751946751" Properties=species:S:1:pos:R:3:initial_magmoms:R:1 pbc="T T T"
Si       1.33777554       1.34967538      -1.37097157       0.00000000
Si      -1.37957789       1.39305484       1.30013420       0.00000000
Si       1.34323269      -1.36150192       1.38068691       0.00000000
Si      -1.37573821      -1.35773893      -1.36052685       0.00000000
Si      -0.12636316      -2.73924498       2.59927644       0.00000000
Si      -2.70100420       0.05854626       2.65928982       0.00000000
Si       2.68069057      -2.69622308      -0.02926272       0.00000000
Si       2.67982720       2.70623492       0.00822740       0.00000000
Si      -0.06845873       2.68673416      -2.70410292       0.00000000
Si       2.74195726       0.05870916       2.66375362       0.00000000
