10
Lattice="16.290000149 0.0 0.0 0.0 16.290000149 0.0 0.0 0.0 29.1751946751" Properties=species:S:1:pos:R:3:initial_magmoms:R:1 pbc="T T T"
H        1.31447269      -0.46180521       0.60468508       0.00000000
Si      -1.24455601       0.24791751       1.94624806       0.00000000
Si       0.28966878       2.02817018      -1.19586205       0.00000000
Si      -0.96567121      -2.00559224      -0.86414009       0.00000000
H        1.88863004      -0.59375422      -1.71590990       0.00000000
Si       3.07558461      -1.09877680      -0.91370875       0.00000000
H       -0.87547348      -2.82628245       1.70727404       0.00000000
Si      -1.90377974       2.76467367      -0.71934360       0.00000000
H        1.00975195       0.15568353      -3.27975868       0.00000000
Si      -3.31172445      -0.46301067       1.07449324       0.00000000
