10
Lattice="16.290000149 0.0 0.0 0.0 16.290000149 0.0 0.0 0.0 29.1751946751" Properties=species:S:1:pos:R:3:initial_magmoms:R:1 pbc="T T T"
Si      -1.26309566       1.42739497       1.32676182       0.00000000
Si       1.63313605      -1.18252369       1.21515707       0.00000000
Si       0.68069232       1.76313188      -1.50719056       0.00000000
Si      -1.33395716      -1.97780150      -0.48486256       0.00000000
Si       0.29777306      -2.59021917       2.56705828       0.00000000
Si       0.16482059       0.85310731      -3.60056913       0.00000000
Si      -2.58441015       0.10142154       2.69219069       0.00000000
Si      -0.40172444      -2.79229336      -2.47959980       0.00000000
Si       0.24326835       2.81219160       2.49451707       0.00000000
Si      -2.40256488       2.92877913      -0.05665823       0.00000000
