10
Lattice="16.290000149 0.0 0.0 0.0 16.290000149 0.0 0.0 0.0 29.1751946751" Properties=species:S:1:pos:R:3:initial_magmoms:R:1 pbc="T T T"
Si      -1.33484171      -1.37684710      -1.34483060       0.00000000
Si       1.34272770      -1.35861859       1.36289004       0.00000000
Si       1.33153647       1.35799957      -1.38249577       0.00000000
Si      -1.38788358       1.36076887       1.32350353       0.00000000
Si      -2.66457976       0.03210759      -2.65578880       0.00000000
Si      -0.03509355       2.71303436       2.68370946       0.00000000
Si       2.69108359       0.00348606       2.71183434       0.00000000
Si       2.69180035       2.71264340      -0.02923355       0.00000000
Si       2.70271465      -2.71324613       0.00936524       0.00000000
Si      -2.71970512      -2.70821252       0.02334016       0.00000000
