10
Lattice="16.290000149 0.0 0.0 0.0 16.290000149 0.0 0.0 0.0 29.1751946751" Properties=species:S:1:pos:R:3:initial_magmoms:R:1 pbc="T T T"
Si      -1.44454834       1.19404072       1.35638047       0.00000000
Si      -1.35742942      -1.34688979      -1.34115452       0.00000000
Si       1.28041030      -1.49556862       1.33563137       0.00000000
Si       1.31259934       1.36541152      -1.48250834       0.00000000
Si       2.16269300      -0.51253227      -2.59201182       0.00000000
Si       0.36517293      -2.10885455      -2.71696918       0.00000000
Si      -0.01720224       2.55318059       2.63494020       0.00000000
Si      -2.80159169       2.43613694      -0.10082947       0.00000000
Si       2.69325830      -0.19929186       2.67918147       0.00000000
Si      -2.78944913      -0.26854065       2.58917891       0.00000000
