10
Lattice="16.290000149 0.0 0.0 0.0 16.290000149 0.0 0.0 0.0 29.1751946751" Properties=species:S:1:pos:R:3:initial_magmoms:R:1 pbc="T T T"
Si      -1.61380144       0.17363511       1.67789462       0.00000000
Si       0.83251675       1.93093354      -1.01760162       0.00000000
Si       1.76783969      -1.15691581       1.03105138       0.00000000
Si      -1.55896930      -0.78229468      -1.59337408       0.00000000
H       -0.21362706       3.04461732      -0.99904619       0.00000000
Si      -2.04951008       2.46302685       1.37558125       0.00000000
Si       1.11174364       1.19682631      -3.22488014       0.00000000
Si       0.61569685      -2.79603192       2.21215079       0.00000000
Si      -2.47762757      -2.61614144      -0.42295280       0.00000000
Si      -0.41197410      -0.65094841      -3.65191747       0.00000000
