10
Lattice="16.290000149 0.0 0.0 0.0 16.290000149 0.0 0.0 0.0 29.1751946751" Properties=species:S:1:pos:R:3:initial_magmoms:R:1 pbc="T T T"
H       -0.62081191       1.30034437      -0.44191667       0.00000000
Si      -0.85107106      -1.66306729      -1.38993545       0.00000000
Si       2.30672918       0.11381334      -0.36083881       0.00000000
Si      -0.75481345      -0.58148785       2.15543421       0.00000000
H        1.40066308       1.66168916      -1.85151620       0.00000000
Si       2.40367097      -1.91592067       0.96578647       0.00000000
Si      -2.22843618      -0.21133506      -2.55093315       0.00000000
Si      -2.12936529       2.77734240       0.19130175       0.00000000
Si       1.31347900      -1.28858137       3.01738616       0.00000000
Si       0.49114350       2.55480471      -2.66209064       0.00000000
