10
Lattice="16.290000149 0.0 0.0 0.0 16.290000149 0.0 0.0 0.0 29.1751946751" Properties=species:S:1:pos:R:3:initial_magmoms:R:1 pbc="T T T"
Si      -1.36906048       1.34799751      -1.34150463       0.00000000
Si      -1.37518552      -1.34268697       1.34176720       0.00000000
Si       1.35363385      -1.35254242      -1.36767478       0.00000000
Si       1.35736426       1.36381510       1.35708418       0.00000000
Si       0.01073511       2.69169446      -2.67647401       0.00000000
Si      -0.01363473      -2.73852821       2.64519820       0.00000000
Si       2.71565705      -2.69322572      -0.00528071       0.00000000
Si      -2.72767907       0.02751381       2.69219944       0.00000000
Si       2.71094924       0.01769094      -2.71244702       0.00000000
Si      -2.72942210      -2.69628824      -0.01852625       0.00000000
