10
Lattice="16.290000149 0.0 0.0 0.0 16.290000149 0.0 0.0 0.0 29.1751946751" Properties=species:S:1:pos:R:3:initial_magmoms:R:1 pbc="T T T"
Si       1.31398399       1.34220479      -1.41826456       0.00000000
Si      -1.34205166      -1.35655954      -1.37919898       0.00000000
Si       1.42425100      -1.36271716       1.29540782       0.00000000
Si      -1.41786532       1.34365460       1.34716461       0.00000000
Si       0.06213006      -2.64752576       2.65552622       0.00000000
Si       2.60525972       2.77407951      -0.09814535       0.00000000
Si      -2.67982720      -2.70623492      -0.00822740       0.00000000
Si      -0.10524969       2.81218182       2.62591340       0.00000000
Si      -2.76353988       2.67919026      -0.03019633       0.00000000
Si       2.73738791      -0.02596300      -2.71241785       0.00000000
