10
Lattice="16.290000149 0.0 0.0 0.0 16.290000149 0.0 0.0 0.0 29.1751946751" Properties=species:S:1:pos:R:3:initial_magmoms:R:1 pbc="T T T"
H       -1.12444984       0.07193664       1.00817803       0.00000000
Si       0.21638007      -2.11550087      -0.93719478       0.00000000
Si       2.06716844       0.71092819       0.87175482       0.00000000
Si      -0.21339900       1.49793067      -1.86245690       0.00000000
H       -0.47759022       1.01175562       2.60808735       0.00000000
H       -2.05369661       1.88564897       1.34833162       0.00000000
Si       2.34605324      -1.54258156      -1.93863334       0.00000000
H        2.43625097      -2.36327177       0.63278080       0.00000000
Si       3.31172445       0.46301067      -1.07449324       0.00000000
H       -1.75358594       1.51226587      -2.69931819       0.00000000
