10
Lattice="16.290000149 0.0 0.0 0.0 16.290000149 0.0 0.0 0.0 29.1751946751" Properties=species:S:1:pos:R:3:initial_magmoms:R:1 pbc="T T T"
Si       1.36212094       1.28480860      -1.36011840       0.00000000
Si      -1.50959431       1.24183558       1.24254237       0.00000000
Si       1.02802933      -0.84813886       1.94190096       0.00000000
Si      -1.39872457      -1.42021108      -1.28306671       0.00000000
H        1.35132067      -2.31808331       0.97561851       0.00000000
Si      -0.80451424      -2.14796684       2.61754012       0.00000000
Si      -2.44480322      -0.48490443       2.51501848       0.00000000
Si       2.62009991       2.58850872       0.12297345       0.00000000
Si      -0.06213006       2.64752576      -2.65552622       0.00000000
Si      -2.74195726      -0.05870916      -2.66375362       0.00000000
