10
Lattice="16.290000149 0.0 0.0 0.0 16.290000149 0.0 0.0 0.0 29.1751946751" Properties=species:S:1:pos:R:3:initial_magmoms:R:1 pbc="T T T"
H        0.90951958      -0.89311555       0.81057443       0.00000000
Si       1.34648254       1.30785895      -1.39162761       0.00000000
Si      -1.14202675       1.42586371       1.46570343       0.00000000
Si      -1.31261563      -1.46852722      -1.27874878       0.00000000
H       -1.11195541      -1.25446033       2.22017396       0.00000000
Si      -2.57819552       2.63015084       0.07982333       0.00000000
Si      -0.49114350      -2.55480471       2.66209064       0.00000000
Si      -2.65829019      -0.13299156      -2.65610972       0.00000000
Si      -0.00483813       2.66540240      -2.69818035       0.00000000
Si       2.73023660       2.66059685      -0.09470268       0.00000000
