10
Lattice="16.290000149 0.0 0.0 0.0 16.290000149 0.0 0.0 0.0 29.1751946751" Properties=species:S:1:pos:R:3:initial_magmoms:R:1 pbc="T T T"
Si      -0.97985980       1.85860757      -0.89468652       0.00000000
Si      -1.76487491      -1.48312306       0.33169279       0.00000000
Si       0.38195163       0.64373194       2.22294561       0.00000000
Si       1.75666475      -0.97063966      -1.26144789       0.00000000
H       -0.38879343      -1.22157082      -2.57462340       0.00000000
Si       1.86922865      -1.22504059       2.57371897       0.00000000
Si       2.50033583      -2.29351799       0.52739999       0.00000000
Si      -2.46190772       0.84895336      -2.36993024       0.00000000
Si      -1.05707440      -3.52351074      -0.44200420       0.00000000
Si      -3.58041171      -0.58326346      -0.81436721       0.00000000
