10
Lattice="16.290000149 0.0 0.0 0.0 16.290000149 0.0 0.0 0.0 29.1751946751" Properties=species:S:1:pos:R:3:initial_magmoms:R:1 pbc="T T T"
Si       1.45931230       1.17872812      -1.41635359       0.00000000
Si      -1.39501045      -1.32170545      -1.36523865       0.00000000
Si      -1.33042060       1.44031294       1.31388447       0.00000000
Si       1.38794059      -1.36019872       1.35636939       0.00000000
Si       0.14235831      -2.59300964      -2.56393070       0.00000000
Si       0.05685210       2.34924608      -2.87639703       0.00000000
H       -0.84473425       3.09130446      -1.89896966       0.00000000
Si      -2.67191840       0.02213811       2.67389200       0.00000000
Si       2.67939714       2.66866040      -0.01828118       0.00000000
Si      -2.61236216      -2.75595852       0.07698167       0.00000000
