10
Lattice="16.290000149 0.0 0.0 0.0 16.290000149 0.0 0.0 0.0 29.1751946751" Properties=species:S:1:pos:R:3:initial_magmoms:R:1 pbc="T T T"
Si      -1.58335706       1.05176386      -1.36076025       0.00000000
Si       1.38611611      -1.47665593      -1.21622634       0.00000000
Si      -0.84825289      -1.48732588       1.63101008       0.00000000
Si       0.43500816       1.81666082       1.48455061       0.00000000
H        0.34681410      -1.12164796       2.52310001       0.00000000
Si      -1.87669273       1.99286975       2.07814912       0.00000000
Si      -0.27974817       2.54682749      -2.63469513       0.00000000
Si      -3.05020479       2.15374979       0.06368945       0.00000000
Si       2.69868287      -0.11339469      -2.60123118       0.00000000
Si      -0.11735316      -2.82040176      -2.51898631       0.00000000
