10
Lattice="16.290000149 0.0 0.0 0.0 16.290000149 0.0 0.0 0.0 29.1751946751" Properties=species:S:1:pos:R:3:initial_magmoms:R:1 pbc="T T T"
Si      -1.56680479       1.28128996      -1.12692107       0.00000000
Si      -1.39339774      -1.43523046       1.17634385       0.00000000
Si       1.56418210       1.12441726       1.46687044       0.00000000
Si       1.07137702      -1.10947933      -1.86665813       0.00000000
Si       2.09492660      -2.44551998      -0.24991472       0.00000000
Si       0.30773439      -3.03306771       1.19078557       0.00000000
Si       0.05543487       2.30910752      -2.51822775       0.00000000
Si       1.83488933       0.76129687      -3.14680732       0.00000000
Si      -2.53423532       2.73272898       0.39021823       0.00000000
Si      -2.98686927      -2.24818292      -0.38508339       0.00000000
