10
Lattice="16.290000149 0.0 0.0 0.0 16.290000149 0.0 0.0 0.0 29.1751946751" Properties=species:S:1:pos:R:3:initial_magmoms:R:1 pbc="T T T"
Si      -0.96743053       1.45143901       1.51713930       0.00000000
Si       1.56680479      -1.28128996       1.12692107       0.00000000
Si       1.62223966       1.02781756      -1.39130668       0.00000000
Si      -1.89866468      -1.50008095      -0.31675509       0.00000000
H       -0.38937987      -2.33046371      -2.02607139       0.00000000
H        0.77072878      -0.72018091      -3.14759505       0.00000000
H       -2.50214402      -1.60010155      -1.71415939       0.00000000
Si       0.17340705      -2.71652042       2.30326492       0.00000000
Si      -2.66116700       2.38008305       0.21382500       0.00000000
H        1.42170976      -1.14176611      -3.10257773       0.00000000
