10
Lattice="16.290000149 0.0 0.0 0.0 16.290000149 0.0 0.0 0.0 29.1751946751" Properties=species:S:1:pos:R:3:initial_magmoms:R:1 pbc="T T T"
Si      -1.19506699      -0.36567792      -0.89208993       0.00000000
H        1.40152645      -2.02823534       0.45650427       0.00000000
Si      -0.34681410       1.12164796      -2.52310001       0.00000000
Si       0.08819406       2.93830878      -1.03854940       0.00000000
Si      -1.96729445      -2.48103218       0.28259094       0.00000000
Si       2.00402840       1.17154423       2.18822713       0.00000000
Si      -1.45142272      -1.57100761       2.37596950       0.00000000
Si       0.60561334      -0.56342224       3.10079804       0.00000000
Si      -0.65252854      -2.74750401      -1.62925957       0.00000000
H        3.11352402       0.63213346      -0.73702377       0.00000000
