10
Lattice="16.290000149 0.0 0.0 0.0 16.290000149 0.0 0.0 0.0 29.1751946751" Properties=species:S:1:pos:R:3:initial_magmoms:R:1 pbc="T T T"
Si      -1.35966115      -1.36234900       1.34480142       0.00000000
Si       1.35423658       1.35360127       1.36029345       0.00000000
Si       1.36938628      -1.37904625      -1.32242405       0.00000000
Si      -1.38349342       1.33820722      -1.35025718       0.00000000
Si      -0.01969461       2.69982317      -2.67974163       0.00000000
Si       2.71578737      -0.04223997       2.66372445       0.00000000
Si      -0.00387702      -2.70558983      -2.68618935       0.00000000
Si      -2.73499328       0.00184077       2.67676576       0.00000000
Si       2.72942210       2.69628824       0.01852625       0.00000000
Si      -0.00907353      -2.73792549       2.68869842       0.00000000
