10
Lattice="16.290000149 0.0 0.0 0.0 16.290000149 0.0 0.0 0.0 29.1751946751" Properties=species:S:1:pos:R:3:initial_magmoms:R:1 pbc="T T T"
Si       1.29127573       1.43187472       1.32011921       0.00000000
Si      -1.35861859       1.36189288      -1.33549454       0.00000000
Si      -1.31398399      -1.34220479       1.41826456       0.00000000
Si       1.42340392      -1.36816779      -1.29415329       0.00000000
Si       2.52946235       0.04064355       2.69287047       0.00000000
Si      -2.65603565      -2.69876432       0.03906559       0.00000000
Si       0.06041961      -2.71003700      -2.67133917       0.00000000
Si      -2.71417466      -0.00853596      -2.66985124       0.00000000
Si       0.01695789       2.69716790      -2.69625479       0.00000000
Si       0.11026701      -2.70492194       2.71367238       0.00000000
