10
Lattice="16.290000149 0.0 0.0 0.0 16.290000149 0.0 0.0 0.0 29.1751946751" Properties=species:S:1:pos:R:3:initial_magmoms:R:1 pbc="T T T"
Si      -1.42899139       1.32727663       1.28464217       0.00000000
Si      -1.37741725      -1.34112313      -1.33327722       0.00000000
Si       1.34744365       1.35456238      -1.35825119       0.00000000
Si       1.35918874      -1.32926401       1.38074526       0.00000000
Si       0.00034209       2.71779104       2.46314499       0.00000000
Si       0.00024435      -2.70713738      -2.64677366       0.00000000
Si      -2.72800487       0.03445335      -2.67717421       0.00000000
Si       2.72741843       0.00837306      -2.67909978       0.00000000
Si      -0.01410714       2.75040363      -2.66168219       0.00000000
Si       0.01620855      -2.67100616       2.74500654       0.00000000
