10
Lattice="16.290000149 0.0 0.0 0.0 16.290000149 0.0 0.0 0.0 29.1751946751" Properties=species:S:1:pos:R:3:initial_magmoms:R:1 pbc="T T T"
Si       0.08322561      -0.69253678      -2.22936999       0.00000000
Si      -0.98867269      -1.78713682       1.15260691       0.00000000
Si       1.83879893       0.88145191       1.18588414       0.00000000
Si      -1.63302364       1.73556920      -0.08310729       0.00000000
H        2.53382807      -0.94701916      -0.73595012       0.00000000
Si      -2.30441600      -0.46421613       2.55310378       0.00000000
Si       0.55144909       2.33023565       2.51425117       0.00000000
Si      -2.12116979      -0.30788100      -3.02874114       0.00000000
Si      -2.07142013       1.98487136      -2.36561814       0.00000000
Si       2.02214288       0.33451515      -3.13248814       0.00000000
