10
Lattice="16.290000149 0.0 0.0 0.0 16.290000149 0.0 0.0 0.0 29.1751946751" Properties=species:S:1:pos:R:3:initial_magmoms:R:1 pbc="T T T"
Si       1.05622732      -1.47227392      -1.47816124       0.00000000
Si      -1.31256676      -1.36326124       1.38500484       0.00000000
Si      -1.45756405       1.33648048      -1.28758887       0.00000000
Si       1.81465715       0.75157174       1.38389618       0.00000000
Si       2.15901146      -1.19721727       2.75139591       0.00000000
Si       0.28707867      -2.66040137       2.60073520       0.00000000
Si       2.43385634      -0.16254162      -2.84131386       0.00000000
Si      -2.69868287       0.11339469       2.60123118       0.00000000
Si       2.28791423      -3.00167688      -0.24113298       0.00000000
Si      -0.13510926       2.58448997      -2.77575720       0.00000000
