10
Lattice="16.290000149 0.0 0.0 0.0 16.290000149 0.0 0.0 0.0 29.1751946751" Properties=species:S:1:pos:R:3:initial_magmoms:R:1 pbc="T T T"
Si       1.28488028       1.41040450       1.32052766       0.00000000
Si      -1.31165452       1.37634211      -1.34106700       0.00000000
Si       1.40588729      -1.31841487      -1.31157088       0.00000000
Si      -1.31543380      -1.32494716       1.44743976       0.00000000
Si      -2.55189368       2.73587295       0.07757684       0.00000000
Si       0.01640403      -2.69381216      -2.62214980       0.00000000
Si       2.77167837      -2.56437182       0.13070487       0.00000000
Si      -2.70040961       0.01971090      -2.66833413       0.00000000
Si       2.68139918       0.17115903       2.70538663       0.00000000
Si       2.72829809       0.07721460      -2.66492063       0.00000000
