10
Lattice="16.290000149 0.0 0.0 0.0 16.290000149 0.0 0.0 0.0 29.1751946751" Properties=species:S:1:pos:R:3:initial_magmoms:R:1 pbc="T T T"
Si      -1.37844352      -1.36379881      -1.30500646       0.00000000
Si      -1.38561112       1.31422834       1.35810531       0.00000000
Si       1.32931288      -1.36664956       1.37584383       0.00000000
Si       1.32471910       1.38675142      -1.38319598       0.00000000
Si      -2.69547374       0.02767671      -2.64659861       0.00000000
Si      -0.01480761       2.67546962       2.68458471       0.00000000
Si      -0.05121576      -2.72269433      -2.67122247       0.00000000
Si       2.68802921      -0.00184077       2.70696209       0.00000000
Si       2.74965429       0.02656899      -2.65351313       0.00000000
Si       2.69452892      -2.71375112       0.02561582       0.00000000
