10
Lattice="16.290000149 0.0 0.0 0.0 16.290000149 0.0 0.0 0.0 29.1751946751" Properties=species:S:1:pos:R:3:initial_magmoms:R:1 pbc="T T T"
H        0.64400887      -0.84010789       1.08076591       0.00000000
Si      -1.42910542       1.23041629       1.28545908       0.00000000
Si      -1.44233290      -1.33011109      -1.20817399       0.00000000
Si       1.50157963       1.36106209      -1.16126027       0.00000000
Si       0.05294250       2.24007050       2.76070280       0.00000000
Si       0.07915311      -2.64472388      -2.40747871       0.00000000
Si       1.06388362      -3.49161492      -0.41641755       0.00000000
Si       0.16074972       2.70630659      -2.54638182       0.00000000
Si      -2.68051952       0.06112008      -2.58092525       0.00000000
Si       2.78946705      -0.58917673       2.39394142       0.00000000
