10
Lattice="16.290000149 0.0 0.0 0.0 16.290000149 0.0 0.0 0.0 29.1751946751" Properties=species:S:1:pos:R:3:initial_magmoms:R:1 pbc="T T T"
Si       1.32483313       1.33634153       1.33723630       0.00000000
Si      -1.41674131       1.34295364      -1.25474343       0.00000000
Si       1.23173578      -1.20124791      -1.59595025       0.00000000
Si      -1.46005642      -1.43683389       1.21487553       0.00000000
Si      -2.45614106      -0.51084512      -2.20693718       0.00000000
Si      -0.71016256      -2.05319862      -2.65845979       0.00000000
Si       2.62405245       2.62664149      -0.13480107       0.00000000
Si       2.64179673      -0.09887102       2.61280498       0.00000000
Si       2.53270406      -2.73123730      -0.27793457       0.00000000
Si      -0.11777670       2.66782261       2.62015713       0.00000000
