10
Lattice="16.290000149 0.0 0.0 0.0 16.290000149 0.0 0.0 0.0 29.1751946751" Properties=species:S:1:pos:R:3:initial_magmoms:R:1 pbc="T T T"
Si       1.53468091       0.72109315       1.60953714       0.00000000
Si      -1.21990924      -1.32172174       1.49449935       0.00000000
Si       0.63110719      -1.06847740      -2.04631898       0.00000000
Si      -1.48727701       1.86877253      -0.35077337       0.00000000
H        1.86957074      -1.84503800       0.72465349       0.00000000
H        3.08534232       0.32353569      -1.01538430       0.00000000
Si      -1.86922865       1.22504059      -2.57371897       0.00000000
Si       0.30648006       2.57284262       2.27595694       0.00000000
Si       3.15514497       1.39729105       0.04729299       0.00000000
Si      -2.55204029       0.22563279       2.65237530       0.00000000
