10
Lattice="16.290000149 0.0 0.0 0.0 16.290000149 0.0 0.0 0.0 29.1751946751" Properties=species:S:1:pos:R:3:initial_magmoms:R:1 pbc="T T T"
Si       1.34668600       1.21322122       1.48188691       0.00000000
Si       1.17124433      -1.59143299      -1.28618846       0.00000000
Si      -1.47784690      -1.30764490       1.37257621       0.00000000
Si      -0.28504421       1.82563889      -1.57003393       0.00000000
Si       2.48832831      -0.16203435      -2.62950195       0.00000000
Si       2.68204899       2.62091669       0.12998570       0.00000000
Si       0.64718851       1.01114702      -3.56477116       0.00000000
Si      -0.08553022       2.52024449       2.83372539       0.00000000
Si       2.52828768      -2.83352922       0.17102149       0.00000000
Si       2.62571817      -0.16016100       2.86886400       0.00000000
