10
Lattice="16.290000149 0.0 0.0 0.0 16.290000149 0.0 0.0 0.0 29.1751946751" Properties=species:S:1:pos:R:3:initial_magmoms:R:1 pbc="T T T"
Si       1.32484942      -1.43260777       1.28152043       0.00000000
Si      -1.34949619      -1.36124128      -1.34833162       0.00000000
Si       1.38724012       1.36072000      -1.31437170       0.00000000
Si      -1.29443599       1.36461331       1.41272128       0.00000000
Si       2.75418291      -0.04209336       2.46002324       0.00000000
Si       0.01796787       2.70308117      -2.66748805       0.00000000
Si      -2.66484854       2.72174951       0.06704460       0.00000000
Si      -0.06284682      -2.77035888       2.61940733       0.00000000
Si      -2.71596656      -0.00351864      -2.67702834       0.00000000
Si       2.73973368      -0.00948078      -2.66480393       0.00000000
