10
Lattice="16.290000149 0.0 0.0 0.0 16.290000149 0.0 0.0 0.0 29.1751946751" Properties=species:S:1:pos:R:3:initial_magmoms:R:1 pbc="T T T"
Si       0.62081191      -1.30034437       0.44191667       0.00000000
Si      -1.50855338       1.47699802       0.63321843       0.00000000
H        2.02147499       0.36134478      -1.40959953       0.00000000
Si       1.11195541       1.25446033      -2.22017396       0.00000000
Si      -0.03007134       2.68032404      -0.75447053       0.00000000
Si      -2.82322058      -0.22385718      -0.50455582       0.00000000
Si      -1.60762428      -1.51167943      -2.10901647       0.00000000
Si      -0.23025915      -2.96341167      -0.94801878       0.00000000
Si      -0.21843261       1.63157384       2.65835621       0.00000000
Si       2.92754109      -1.18653103       0.08107787       0.00000000
