10
Lattice="16.290000149 0.0 0.0 0.0 16.290000149 0.0 0.0 0.0 29.1751946751" Properties=species:S:1:pos:R:3:initial_magmoms:R:1 pbc="T T T"
Si      -1.34604108      -1.32892192       1.38110704       0.00000000
Si       1.36223497       1.36832743       1.36301841       0.00000000
Si      -1.38549383       1.33921720      -1.37202771       0.00000000
Si       1.38460114      -1.36940257      -1.35268456       0.00000000
Si       2.68387526       0.11567529      -2.62743459       0.00000000
Si      -2.67739184      -2.68872968       0.00217355       0.00000000
Si      -2.60618418      -0.14929785      -2.77134007       0.00000000
Si      -0.03803715       2.79987636      -2.60459567       0.00000000
Si      -2.70060509       0.05970285       2.71123334       0.00000000
Si       0.02342502      -2.67760361       2.74466811       0.00000000
