10
Lattice="16.290000149 0.0 0.0 0.0 16.290000149 0.0 0.0 0.0 29.1751946751" Properties=species:S:1:pos:R:3:initial_magmoms:R:1 pbc="T T T"
Si      -1.37013562       1.38725641       1.31063727       0.00000000
Si      -1.36065484      -1.34599384      -1.36714962       0.00000000
Si       1.35376417       1.34726446      -1.37426837       0.00000000
Si       1.34899120      -1.33338538       1.40624438       0.00000000
Si       0.01303200       2.73722502       2.65173344       0.00000000
Si       2.67157631      -2.72821990       0.04166218       0.00000000
Si      -2.69586470      -2.70976007       0.00239237       0.00000000
Si      -0.06170652      -2.61859798       2.78731057       0.00000000
Si      -0.01053963      -2.69575882      -2.74039686       0.00000000
Si       2.72784197       2.71104698      -0.04212898       0.00000000
