10
Lattice="16.290000149 0.0 0.0 0.0 16.290000149 0.0 0.0 0.0 29.1751946751" Properties=species:S:1:pos:R:3:initial_magmoms:R:1 pbc="T T T"
Si       1.60943572      -0.16612542      -1.68011194       0.00000000
Si      -0.43406334       2.28804944      -0.31194118       0.00000000
Si       0.24959538      -0.51300468       2.29816597       0.00000000
Si      -1.89710084      -1.30070764      -0.63222647       0.00000000
H        1.32996448      -2.22544208       1.50926200       0.00000000
H       -2.78008401      -0.44847999      -1.52081537       0.00000000
Si      -1.49646457       1.03004929       2.74787155       0.00000000
Si       0.04771341      -0.95040748      -3.27360272       0.00000000
Si      -2.32788989       2.27286716       1.03151818       0.00000000
Si      -0.86596012      -2.78717016      -2.10391081       0.00000000
