10
Lattice="16.290000149 0.0 0.0 0.0 16.290000149 0.0 0.0 0.0 29.1751946751" Properties=species:S:1:pos:R:3:initial_magmoms:R:1 pbc="T T T"
Si      -0.44005806       0.24912297      -2.28332426       0.00000000
Si       0.80985736       1.85909627       1.18194199       0.00000000
Si      -1.87401791      -0.80290153       1.19568934       0.00000000
Si       1.63302364      -1.73565065       0.08421362       0.00000000
Si       2.18484740       0.59495968       2.59968723       0.00000000
Si      -0.67075705      -2.19937808       2.63790674       0.00000000
Si      -2.15826212       1.87981715      -2.17727242       0.00000000
Si      -0.48811356      -2.04490001      -2.95126116       0.00000000
Si       1.71549992      -2.42773130      -2.14587991       0.00000000
Si       0.64518175      -3.52267832       1.23781248       0.00000000
