10
Lattice="16.290000149 0.0 0.0 0.0 16.290000149 0.0 0.0 0.0 29.1751946751" Properties=species:S:1:pos:R:3:initial_magmoms:R:1 pbc="T T T"
Si       1.32610375       1.38253231      -1.37619685       0.00000000
Si       1.34894233      -1.36238158       1.37624645       0.00000000
Si      -1.36342414       1.34786719       1.39034682       0.00000000
Si      -1.38966733      -1.37797111      -1.34156589       0.00000000
Si       2.52543872      -0.09026289      -2.80525624       0.00000000
Si      -2.64753227      -2.74776465       0.08347898       0.00000000
Si      -2.84092716       0.03943809      -2.55890089       0.00000000
Si       2.72088614       0.04386897       2.68849127       0.00000000
Si      -0.07253937       2.80751637      -2.60070895       0.00000000
Si       2.63472833       2.82898659      -0.00613263       0.00000000
