10
Lattice="16.290000149 0.0 0.0 0.0 16.290000149 0.0 0.0 0.0 29.1751946751" Properties=species:S:1:pos:R:3:initial_magmoms:R:1 pbc="T T T"
Si      -1.34275213       1.35773893      -1.36925024       0.00000000
Si       1.32755193      -1.34882830      -1.39588719       0.00000000
Si       1.34802358       1.37855755       1.35139502       0.00000000
Si      -1.34434855      -1.37161801       1.36324015       0.00000000
Si       2.66631464      -2.70847316      -0.03328890       0.00000000
Si      -2.68672601       2.72277578      -0.01817615       0.00000000
Si      -2.70962975      -2.71114472      -0.00933606       0.00000000
Si       2.71832861       0.03448593       2.70669951       0.00000000
Si      -2.72787455      -0.02770929       2.69893891       0.00000000
Si       2.70831026       2.72877050      -0.00227567       0.00000000
