10
Lattice="16.290000149 0.0 0.0 0.0 16.290000149 0.0 0.0 0.0 29.1751946751" Properties=species:S:1:pos:R:3:initial_magmoms:R:1 pbc="T T T"
Si      -1.29903150      -1.29035698       1.47268214       0.00000000
Si      -1.45043076       1.38442195      -1.22714953       0.00000000
Si       1.36220392       1.39501045       1.31866628       0.00000000
Si       1.43360951      -1.30721061      -1.35093697       0.00000000
Si      -2.62484203      -2.62654179       0.13620440       0.00000000
Si      -0.12823661       2.70933653      -2.59295681       0.00000000
Si       0.08681681      -2.52528120      -2.82835424       0.00000000
Si       2.71184347      -2.68051952       0.03646024       0.00000000
Si       2.65626199       0.04186530       2.75061401       0.00000000
Si       0.01180901       2.72158661       2.72555252       0.00000000
