10
Lattice="16.290000149 0.0 0.0 0.0 16.290000149 0.0 0.0 0.0 29.1751946751" Properties=species:S:1:pos:R:3:initial_magmoms:R:1 pbc="T T T"
Si      -0.93167724       0.81661934       1.99523321       0.00000000
Si       1.36669517       1.39647818      -1.30839078       0.00000000
Si      -1.86584359      -0.88566613      -1.12957601       0.00000000
Si       1.84563747      -1.16862669       0.92555388       0.00000000
H        2.65792204       1.39670624      -0.50709406       0.00000000
H       -2.89217875       0.24661431      -1.10410607       0.00000000
Si       0.53119736      -2.59914934       2.27152231       0.00000000
Si       1.82113731      -0.07595375      -3.16921387       0.00000000
Si       0.40676130       2.79632676       2.46903838       0.00000000
Si      -0.64043549      -1.00879459       3.56010313       0.00000000
