10
Lattice="16.290000149 0.0 0.0 0.0 16.290000149 0.0 0.0 0.0 29.1751946751" Properties=species:S:1:pos:R:3:initial_magmoms:R:1 pbc="T T T"
Si       1.37995849       1.31787730      -1.36359025       0.00000000
Si      -1.37342620      -1.32667390      -1.36370695       0.00000000
Si       1.35588187      -1.37024965       1.33908309       0.00000000
Si      -1.36925596       1.37904625       1.32248240       0.00000000
Si      -0.05328459       2.63759537      -2.64659861       0.00000000
Si       0.04531878      -2.65742030      -2.66602929       0.00000000
Si       2.72613152      -0.00882918       2.66684619       0.00000000
Si      -2.72973162       0.01669725       2.66626269       0.00000000
Si      -0.01479132       2.73237059       2.68315513       0.00000000
Si      -0.00026064      -2.72583830       2.69677994       0.00000000
