10
Lattice="16.290000149 0.0 0.0 0.0 16.290000149 0.0 0.0 0.0 29.1751946751" Properties=species:S:1:pos:R:3:initial_magmoms:R:1 pbc="T T T"
Si       1.41874498      -1.33074640      -1.30232234       0.00000000
Si       1.37342620       1.32667390       1.36370695       0.00000000
Si      -1.35148357      -1.37556019       1.34693121       0.00000000
Si      -1.35164647       1.31885470      -1.40793654       0.00000000
Si       0.10627596      -2.69060303      -2.64766059       0.00000000
Si       0.00417024       2.70572015       2.68618935       0.00000000
Si       2.75338470       2.64455120       0.00011670       0.00000000
Si      -2.72145629      -0.01215234       2.68321348       0.00000000
Si      -2.71443530       2.69244380      -0.05811699       0.00000000
Si       0.01539405       2.66916539      -2.75853800       0.00000000
