10
Lattice="16.290000149 0.0 0.0 0.0 16.290000149 0.0 0.0 0.0 29.1751946751" Properties=species:S:1:pos:R:3:initial_magmoms:R:1 pbc="T T T"
Si       0.65736667      -0.42406128       2.12993509       0.00000000
Si      -1.06821676      -1.75967840      -1.06719945       0.00000000
Si      -1.69819994       1.59931963      -0.01867212       0.00000000
Si       1.78500935       0.59129443      -1.43833710       0.00000000
Si      -0.30398769       3.03404511      -1.19548278       0.00000000
H        3.08776953       1.14311818      -0.52909216       0.00000000
H       -0.55198666      -3.04306977       1.32478724       0.00000000
Si      -2.00049347      -0.71819353      -2.90016023       0.00000000
Si      -1.25040412      -1.21454983       3.25076729       0.00000000
Si       0.76620016       1.92362096      -3.06295781       0.00000000
