10
Lattice="16.290000149 0.0 0.0 0.0 16.290000149 0.0 0.0 0.0 29.1751946751" Properties=species:S:1:pos:R:3:initial_magmoms:R:1 pbc="T T T"
Si      -1.43324308       1.31971807      -1.28300836       0.00000000
Si      -1.37995849      -1.31787730       1.36359025       0.00000000
Si       1.33532389       1.40419801       1.33873298       0.00000000
Si       1.34631964      -1.27938403      -1.46051025       0.00000000
Si      -0.07794765       2.66038508      -2.59866376       0.00000000
Si       2.68581377      -2.61591338      -0.03877383       0.00000000
Si      -0.02407662      -2.68812695       2.70267333       0.00000000
Si      -2.75338470      -2.64455120      -0.00011670       0.00000000
Si       2.69804756       0.06455727       2.70299426       0.00000000
Si      -2.74921446       0.06116895       2.68607265       0.00000000
