10
Lattice="16.290000149 0.0 0.0 0.0 16.290000149 0.0 0.0 0.0 29.1751946751" Properties=species:S:1:pos:R:3:initial_magmoms:R:1 pbc="T T T"
Si      -1.43319910       1.21383307      -1.38375031       0.00000000
Si       1.14355801      -1.41916852      -1.47468939       0.00000000
Si      -1.49196039      -1.19094562       1.38748473       0.00000000
Si       1.49713246       1.34530966       1.30115533       0.00000000
H        0.08285094      -2.67757103       0.66755763       0.00000000
H       -2.60240409      -0.19412793       1.66231507       0.00000000
H        2.09087039      -2.31086684      -0.70318054       0.00000000
Si      -0.19797237      -1.02869722       3.41023016       0.00000000
Si      -0.07174116       2.64433943      -2.68750223       0.00000000
Si       0.11183085       2.82457200       2.51318044       0.00000000
