10
Lattice="16.290000149 0.0 0.0 0.0 16.290000149 0.0 0.0 0.0 29.1751946751" Properties=species:S:1:pos:R:3:initial_magmoms:R:1 pbc="T T T"
Si      -1.30352581      -1.35340579       1.43377993       0.00000000
Si       1.35999021      -1.45846000      -1.28755386       0.00000000
Si       1.39030916       1.28791999       1.43415921       0.00000000
Si      -1.30228777       1.52922376      -1.31631768       0.00000000
Si       2.70744689       0.00219915      -2.52012181       0.00000000
Si      -2.53379549       2.73239584       0.27795500       0.00000000
Si      -2.65030157      -2.68589522       0.04436088       0.00000000
Si       2.80289001       2.67841811       0.17821084       0.00000000
Si      -2.64722276      -0.04978224       2.85744191       0.00000000
Si       0.17786334       2.83365644      -2.68660364       0.00000000
