10
Lattice="16.290000149 0.0 0.0 0.0 16.290000149 0.0 0.0 0.0 29.1751946751" Properties=species:S:1:pos:R:3:initial_magmoms:R:1 pbc="T T T"
Si       1.44443431      -1.18765504      -1.36324832       0.00000000
Si      -1.34745668      -1.46065915       1.23256795       0.00000000
Si      -1.35795070       1.24110253      -1.45506265       0.00000000
Si       1.42509808       1.36181143       1.27855681       0.00000000
Si      -2.70744689      -0.00219915       2.52012181       0.00000000
Si       0.08387721      -2.53664624      -2.69970563       0.00000000
Si      -2.52958355       2.83145729      -0.16648183       0.00000000
Si       0.09544311       2.67621896       2.69833265       0.00000000
Si       2.75390598      -0.03388320       2.64749195       0.00000000
Si       2.72191241      -2.68420106      -0.02283893       0.00000000
