10
Lattice="16.290000149 0.0 0.0 0.0 16.290000149 0.0 0.0 0.0 29.1751946751" Properties=species:S:1:pos:R:3:initial_magmoms:R:1 pbc="T T T"
Si      -1.26079714       1.10673772      -1.59617490       0.00000000
Si      -1.89382655      -0.01518228       1.34345936       0.00000000
Si       1.57007908       1.68622190       0.45139861       0.00000000
Si       0.43406334      -2.28804944       0.31194118       0.00000000
H        1.85331332       0.60930465      -2.36003985       0.00000000
H       -2.07277220       1.37244392       1.95435877       0.00000000
Si       2.04349907      -2.45417486      -1.36817075       0.00000000
Si      -1.06240123      -1.25800015       3.05981273       0.00000000
Si       0.84149254       2.32293284       2.63068588       0.00000000
Si      -2.58900230       2.65583529      -0.43762792       0.00000000
