10
Lattice="16.290000149 0.0 0.0 0.0 16.290000149 0.0 0.0 0.0 29.1751946751" Properties=species:S:1:pos:R:3:initial_magmoms:R:1 pbc="T T T"
Si       1.53731989      -1.27171144      -1.19883792       0.00000000
Si       1.39517335       1.32194980       1.36494398       0.00000000
Si      -1.21704220      -1.43409016       1.44306348       0.00000000
Si      -1.47207844       1.20997234      -1.45415005       0.00000000
H        0.35486136      -1.80357995      -2.25533007       0.00000000
Si      -2.67141341       2.68276754      -0.02509067       0.00000000
Si       2.85437048       2.50105259      -0.05190267       0.00000000
Si      -2.64857483      -0.06214635       2.72735263       0.00000000
Si      -0.14123430       2.54286902      -2.85184610       0.00000000
Si       0.06476904       2.76213243       2.67932443       0.00000000
