10
Lattice="16.290000149 0.0 0.0 0.0 16.290000149 0.0 0.0 0.0 29.1751946751" Properties=species:S:1:pos:R:3:initial_magmoms:R:1 pbc="T T T"
Si      -1.38968362      -1.34521192      -1.27578750       0.00000000
Si       1.32999755      -1.40871034       1.31122077       0.00000000
Si      -1.42506550       1.36031275       1.27028798       0.00000000
Si       1.29523420       1.31435866      -1.46943494       0.00000000
Si       2.62658496       2.67416642      -0.09050145       0.00000000
Si       2.66486483      -0.03181437       2.65654735       0.00000000
Si      -0.06889041       2.70987410       2.62512567       0.00000000
Si      -0.13224222      -2.74587501      -2.64148128       0.00000000
Si      -2.74981719      -0.02643867       2.65333808       0.00000000
Si       2.68039246      -2.73528651      -0.09566546       0.00000000
