10
Lattice="16.290000149 0.0 0.0 0.0 16.290000149 0.0 0.0 0.0 29.1751946751" Properties=species:S:1:pos:R:3:initial_magmoms:R:1 pbc="T T T"
Si       1.31136130      -1.42532614       1.29692493       0.00000000
Si      -1.35109261      -1.38758221      -1.32105281       0.00000000
Si       1.37640727       1.33002964      -1.35431254       0.00000000
Si      -1.29907864       1.35537688       1.41893559       0.00000000
Si       2.66116700      -0.08461026       2.61211353       0.00000000
Si       0.00905724       2.68731245      -2.68157967       0.00000000
Si      -2.66938368       2.69944850       0.06363110       0.00000000
Si      -2.68985532      -0.02793735      -2.68365111       0.00000000
Si       0.03780909      -2.73820241      -2.65424251       0.00000000
Si      -2.63081711      -0.04176756       2.76172393       0.00000000
