10
Lattice="16.290000149 0.0 0.0 0.0 16.290000149 0.0 0.0 0.0 29.1751946751" Properties=species:S:1:pos:R:3:initial_magmoms:R:1 pbc="T T T"
Si      -1.32727663       1.35897697       1.36633272       0.00000000
Si       1.37728693      -1.33975477       1.35921397       0.00000000
Si       1.41134932       1.40418172      -1.25778641       0.00000000
Si      -1.42004818      -1.42917058      -1.23555491       0.00000000
Si       0.07770330      -2.66492511      -2.51556989       0.00000000
Si       2.66879072       0.00351864      -2.62348019       0.00000000
Si      -2.67020795      -0.05911641      -2.64851542       0.00000000
Si       0.05121576       2.72295497       2.67133917       0.00000000
Si      -2.64448604       2.75032218       0.02462386       0.00000000
Si       0.09606213       2.66804138      -2.72998132       0.00000000
