10
Lattice="16.290000149 0.0 0.0 0.0 16.290000149 0.0 0.0 0.0 29.1751946751" Properties=species:S:1:pos:R:3:initial_magmoms:R:1 pbc="T T T"
Si      -1.32219415      -1.32491458       1.36580727       0.00000000
Si       1.26225021      -1.42949638      -1.32646219       0.00000000
Si      -1.14056065       1.50198688      -1.38259526       0.00000000
Si       1.50538172       1.38543193       1.16883386       0.00000000
Si       1.94225672       0.33440112      -2.83309842       0.00000000
H       -2.32301918       0.97011838      -2.43908741       0.00000000
Si       0.53023950       2.28550331      -2.82848874       0.00000000
Si       0.10528227       2.73531909       2.53785361       0.00000000
Si       0.12823661      -2.70933653       2.59295681       0.00000000
Si      -2.57963555       0.07574850       2.73150105       0.00000000
