10
Lattice="16.290000149 0.0 0.0 0.0 16.290000149 0.0 0.0 0.0 29.1751946751" Properties=species:S:1:pos:R:3:initial_magmoms:R:1 pbc="T T T"
Si       1.37481085      -1.34658843       1.33622392       0.00000000
Si       1.36451557       1.34748438      -1.35028636       0.00000000
Si      -1.34990344      -1.36998087      -1.35130749       0.00000000
Si      -1.35011521       1.34976498       1.37324724       0.00000000
Si       0.01971090      -2.70167209       2.67002629       0.00000000
Si       0.00184077       2.71318912      -2.68621852       0.00000000
Si      -2.73232173      -0.01062923      -2.67361484       0.00000000
Si      -2.71896392       2.69421127       0.00910266       0.00000000
Si       2.72442107       2.69129536       0.01301214       0.00000000
Si       2.72727182      -0.01509594      -2.69596304       0.00000000
