10
Lattice="16.290000149 0.0 0.0 0.0 16.290000149 0.0 0.0 0.0 29.1751946751" Properties=species:S:1:pos:R:3:initial_magmoms:R:1 pbc="T T T"
Si      -1.18571653      -1.14921683      -1.70140983       0.00000000
Si       0.57607957      -1.74751954       1.51042900       0.00000000
Si      -2.00099846       0.88139326       0.96928749       0.00000000
Si       1.43703637       1.42103210      -1.34853585       0.00000000
H        2.72623741       0.38464600       0.95227835       0.00000000
H        0.43295562       2.29588656       2.01390534       0.00000000
Si      -2.72706005       2.20640559      -0.82694172       0.00000000
Si      -2.47974527      -2.58873515      -0.42671640       0.00000000
Si      -2.61646724       0.47624467      -2.63274039       0.00000000
Si      -3.51305256      -0.96940325       0.89185653       0.00000000
