10
Lattice="16.290000149 0.0 0.0 0.0 16.290000149 0.0 0.0 0.0 29.1751946751" Properties=species:S:1:pos:R:3:initial_magmoms:R:1 pbc="T T T"
Si       1.35990550       1.35472528       1.35361233       0.00000000
Si      -1.33118623      -1.35729910       1.38348773       0.00000000
Si       1.37880190      -1.35889552      -1.33657402       0.00000000
Si      -1.36946610       1.34868169      -1.36356107       0.00000000
Si      -2.66605352      -2.73419507       0.03816115       0.00000000
Si      -0.00892692       2.70840800       2.70538663       0.00000000
Si       2.71524980       2.69863400      -0.02223150       0.00000000
Si      -0.02342502       2.67760361      -2.74466811       0.00000000
Si      -2.71955036       0.00381186       2.70667034       0.00000000
Si       2.70822881      -0.00596214       2.71909897       0.00000000
