10
Lattice="16.290000149 0.0 0.0 0.0 16.290000149 0.0 0.0 0.0 29.1751946751" Properties=species:S:1:pos:R:3:initial_magmoms:R:1 pbc="T T T"
Si      -1.44443431       1.18765504       1.36324832       0.00000000
Si      -1.36055710      -1.34899120      -1.33645732       0.00000000
Si       1.27747810      -1.49654602       1.34040939       0.00000000
Si       1.30624624       1.37187865      -1.49015224       0.00000000
Si       2.15730101      -0.50792220      -2.59773016       0.00000000
Si       0.36041625      -2.10561284      -2.71618145       0.00000000
Si      -0.01933623       2.54946647       2.64180513       0.00000000
Si      -2.80238502       2.42875757      -0.09181434       0.00000000
Si       2.69086367      -0.20232180       2.68542496       0.00000000
Si      -2.79189100      -0.27300411       2.59581627       0.00000000
