10
Lattice="16.290000149 0.0 0.0 0.0 16.290000149 0.0 0.0 0.0 29.1751946751" Properties=species:S:1:pos:R:3:initial_magmoms:R:1 pbc="T T T"
H       -0.59404744       1.29756530      -0.48343298       0.00000000
Si       2.29749275       0.08050681      -0.32740403       0.00000000
Si      -0.88083289      -1.67817790      -1.35927232       0.00000000
Si      -0.93926512      -0.53305116       2.13296931       0.00000000
H       -2.19552550       0.04053115       1.41021221       0.00000000
H        1.41397201       1.66426949      -1.85417115       0.00000000
Si       2.32663556      -1.98495118       0.97022110       0.00000000
Si      -2.26671931      -0.21189706      -2.50827901       0.00000000
Si       1.24745563      -1.29187357       3.01522719       0.00000000
Si      -2.16885876       2.78419071       0.23649413       0.00000000
