10
Lattice="16.290000149 0.0 0.0 0.0 16.290000149 0.0 0.0 0.0 29.1751946751" Properties=species:S:1:pos:R:3:initial_magmoms:R:1 pbc="T T T"
Si       1.36028669       1.35021295      -1.35367068       0.00000000
Si       1.37030504      -1.34407162       1.35530449       0.00000000
Si      -1.33832796       1.36326124       1.37295549       0.00000000
Si      -1.34802358      -1.37855755      -1.35139502       0.00000000
Si      -2.68856027      -0.04668714       2.67781607       0.00000000
Si       2.66938368      -2.69944850      -0.06363110       0.00000000
Si      -0.02871113       2.69922044      -2.68397203       0.00000000
Si      -2.69077571      -0.02081862      -2.72064525       0.00000000
Si       2.67844092      -0.01213605      -2.74521077       0.00000000
Si       2.72753898       0.03661992       2.70477395       0.00000000
