10
Lattice="16.290000149 0.0 0.0 0.0 16.290000149 0.0 0.0 0.0 29.1751946751" Properties=species:S:1:pos:R:3:initial_magmoms:R:1 pbc="T T T"
Si      -1.34803009      -1.36179514      -1.35043224       0.00000000
Si       1.34322454      -1.38280924       1.34380947       0.00000000
Si      -1.38890170       1.35062020       1.33318970       0.00000000
Si       1.34838847       1.34763913      -1.37832372       0.00000000
Si       2.71096553      -0.02454903       2.67238948       0.00000000
Si      -0.03780909       2.73820241       2.65424251       0.00000000
Si      -2.69102657      -0.00369783      -2.71393496       0.00000000
Si       2.71353935       2.70316262      -0.03156756       0.00000000
Si       0.01110978      -2.71705799      -2.70465725       0.00000000
Si      -0.03178179      -2.71948520       2.70553250       0.00000000
