10
Lattice="16.290000149 0.0 0.0 0.0 16.290000149 0.0 0.0 0.0 29.1751946751" Properties=species:S:1:pos:R:3:initial_magmoms:R:1 pbc="T T T"
Si      -1.48508438       1.08087409       1.42590846       0.00000000
Si      -1.41958229      -1.43531191      -1.17042128       0.00000000
Si       1.56712408      -1.07093719       1.36379448       0.00000000
Si       1.31428699       1.48646251      -1.27247612       0.00000000
H       -2.52088404      -0.02399517       1.63923749       0.00000000
Si       1.99033828       0.73987552       2.85032899       0.00000000
Si      -0.32035263       0.92247013       3.44544462       0.00000000
Si       0.02209413      -2.68167611      -2.53313628       0.00000000
Si      -2.71014126      -0.01951542      -2.52712619       0.00000000
Si       2.82016718       0.15628626      -2.52088270       0.00000000
