10
Lattice="16.290000149 0.0 0.0 0.0 16.290000149 0.0 0.0 0.0 29.1751946751" Properties=species:S:1:pos:R:3:initial_magmoms:R:1 pbc="T T T"
Si       2.26127194      -0.53038611       0.11445429       0.00000000
Si      -0.28056267       0.74887085       2.20424431       0.00000000
Si      -0.57607957       1.74751954      -1.51042900       0.00000000
Si      -1.52938666      -1.83488933      -0.43048000       0.00000000
H        2.15015784       2.13216554      -0.55815065       0.00000000
H       -1.30689784       1.88115130       2.22971425       0.00000000
Si       2.54668088      -1.32336703      -2.04917815       0.00000000
Si      -1.11671209      -1.18232821       3.22158335       0.00000000
Si      -2.67843440      -1.96661027       1.62809256       0.00000000
Si      -1.76179610       0.59830271      -3.21183883       0.00000000
