10
Lattice="16.290000149 0.0 0.0 0.0 16.290000149 0.0 0.0 0.0 29.1751946751" Properties=species:S:1:pos:R:3:initial_magmoms:R:1 pbc="T T T"
Si       0.62762113      -0.40338927       2.14819876       0.00000000
Si       1.83145214       0.82477900      -1.16371099       0.00000000
Si      -0.87806359      -1.88877665      -1.06941676       0.00000000
Si      -1.60151878       1.77648968       0.08959702       0.00000000
H        2.67535559       1.75902680      -0.35363253       0.00000000
Si      -2.27309033      -0.60566221      -2.42924341       0.00000000
Si       0.53652744       2.11898693      -2.59005708       0.00000000
Si      -1.49666005      -0.98984557       3.14954979       0.00000000
Si      -3.45680319       0.84497860      -1.01695976       0.00000000
Si      -0.54652951       3.53934462      -1.09220259       0.00000000
