10
Lattice="16.290000149 0.0 0.0 0.0 16.290000149 0.0 0.0 0.0 29.1751946751" Properties=species:S:1:pos:R:3:initial_magmoms:R:1 pbc="T T T"
H        0.94731238      -0.89169832       0.77150885       0.00000000
Si       1.33765336       1.31237128      -1.39212359       0.00000000
Si      -1.14355801       1.41916852       1.47468939       0.00000000
Si      -1.31952259      -1.47212731      -1.26745798       0.00000000
H       -1.06070707      -1.25840251       2.14224702       0.00000000
Si      -2.57675711       2.63300159       0.09093908       0.00000000
Si      -0.46665963      -2.55596781       2.62568000       0.00000000
Si      -2.66663230      -0.13734099      -2.64662778       0.00000000
Si      -0.01824480       2.66688479      -2.69383325       0.00000000
Si       2.72536589       2.65701305      -0.09198939       0.00000000
