10
Lattice="16.290000149 0.0 0.0 0.0 16.290000149 0.0 0.0 0.0 29.1751946751" Properties=species:S:1:pos:R:3:initial_magmoms:R:1 pbc="T T T"
Si       1.36704052       1.35031069      -1.35060145       0.00000000
Si      -1.34358292      -1.36904419      -1.36394035       0.00000000
Si       1.35164647      -1.31885470       1.40793654       0.00000000
Si      -1.36278883       1.37358910       1.34981956       0.00000000
Si       2.67178808       2.64541457       0.12504488       0.00000000
Si      -2.69923673      -2.68394042       0.03547704       0.00000000
Si       0.08293239      -2.74532115      -2.65746929       0.00000000
Si      -0.00420282       2.76245823      -2.65503608       0.00000000
Si       2.77039146      -2.64960110       0.10561420       0.00000000
Si      -2.71686251      -0.01684386      -2.72530161       0.00000000
