10
Lattice="16.290000149 0.0 0.0 0.0 16.290000149 0.0 0.0 0.0 29.1751946751" Properties=species:S:1:pos:R:3:initial_magmoms:R:1 pbc="T T T"
Si      -1.35534430      -1.34390872       1.37584383       0.00000000
Si       1.33478632       1.35140212       1.39419503       0.00000000
Si      -1.37643985       1.34729704      -1.35941820       0.00000000
Si       1.36278883      -1.37358910      -1.34981956       0.00000000
Si       2.71443530      -2.69244380       0.05811699       0.00000000
Si       2.69873174       2.71295291       0.06471058       0.00000000
Si      -2.71524980      -2.69863400       0.02223150       0.00000000
Si      -0.02280600       2.74496277      -2.67954032       0.00000000
Si       2.72982935      -0.02327841      -2.70042101       0.00000000
Si      -2.72826551       2.71658558      -0.00070020       0.00000000
