10
Lattice="16.290000149 0.0 0.0 0.0 16.290000149 0.0 0.0 0.0 29.1751946751" Properties=species:S:1:pos:R:3:initial_magmoms:R:1 pbc="T T T"
Si      -0.84484828       1.84508687      -1.12537478       0.00000000
Si       1.71497864      -0.44308800      -1.52545423       0.00000000
Si       1.37933947       1.02780127       1.63141854       0.00000000
Si      -1.39538512      -1.73868059       0.91458400       0.00000000
H        1.11537631      -0.53791210      -2.92528007       0.00000000
H       -2.00555966      -1.16624998      -2.17623612       0.00000000
Si       2.19255257      -2.47257767      -0.46656971       0.00000000
Si       0.32281893      -3.36937476       0.80853217       0.00000000
Si       2.64205883       2.51230898       0.30432646       0.00000000
Si      -2.56582163       2.60170850       0.25434935       0.00000000
