10
Lattice="16.290000149 0.0 0.0 0.0 16.290000149 0.0 0.0 0.0 29.1751946751" Properties=species:S:1:pos:R:3:initial_magmoms:R:1 pbc="T T T"
Si      -1.33190299      -1.35501036      -1.38316680       0.00000000
Si       1.33180525      -1.36628304       1.37231363       0.00000000
Si       1.35163018       1.35124737      -1.37333476       0.00000000
Si      -1.37060803       1.34002356       1.36557416       0.00000000
Si      -2.69482214       2.70447397      -0.02681200       0.00000000
Si       0.00215028       2.72390794       2.67580298       0.00000000
Si       2.70244424       0.00577969       2.70241076       0.00000000
Si       2.70148638      -2.70613555      -0.00805235       0.00000000
Si      -2.69166188      -2.71851595      -0.04078692       0.00000000
Si      -2.69197139      -0.00191733      -2.73578718       0.00000000
