10
Lattice="16.290000149 0.0 0.0 0.0 16.290000149 0.0 0.0 0.0 29.1751946751" Properties=species:S:1:pos:R:3:initial_magmoms:R:1 pbc="T T T"
Si      -1.40524220       1.31790988       1.31200850       0.00000000
Si       1.36993851      -1.23852871       1.44528079       0.00000000
Si       1.33173846       1.39714444      -1.34278833       0.00000000
Si      -1.39139570      -1.37557648      -1.31104572       0.00000000
Si       2.56699288      -2.63515187      -0.03573961       0.00000000
Si      -0.11536252       2.72391608       2.63131081       0.00000000
Si       2.63081711       0.04176756      -2.76172393       0.00000000
Si      -2.73093870      -0.00895950      -2.68624770       0.00000000
Si       0.00848057      -2.66903507       2.74903272       0.00000000
Si      -2.72712684       2.69452892      -0.02027676       0.00000000
