10
Lattice="16.290000149 0.0 0.0 0.0 16.290000149 0.0 0.0 0.0 29.1751946751" Properties=species:S:1:pos:R:3:initial_magmoms:R:1 pbc="T T T"
Si      -0.72962911       2.19016446       0.40124645       0.00000000
Si       1.90382861       0.54712735       1.28213311       0.00000000
Si      -1.61735266      -1.48731937       0.93757406       0.00000000
Si       0.72567064       0.34425169      -2.26387841       0.00000000
H        1.45163449      -2.17421980      -1.27020045       0.00000000
H        1.72488296       1.93475354       1.89303251       0.00000000
Si       2.53685801       1.66904735      -1.65750116       0.00000000
Si       1.20865285       3.21814492      -0.49895418       0.00000000
H       -0.45325296      -2.59784126      -2.51067138       0.00000000
Si      -0.40161366      -2.90192669       2.38820295       0.00000000
