10
Lattice="16.290000149 0.0 0.0 0.0 16.290000149 0.0 0.0 0.0 29.1751946751" Properties=species:S:1:pos:R:3:initial_magmoms:R:1 pbc="T T T"
Si       1.34133490      -1.35580042      -1.34332253       0.00000000
Si       1.30448692       1.18442962       1.55299824       0.00000000
Si      -1.32079321      -1.40330206       1.34329861       0.00000000
Si      -1.21573900       1.41460732      -1.45062890       0.00000000
Si      -0.16433352      -2.63937098      -2.62860656       0.00000000
Si       0.40161366       2.90192669      -2.38820295       0.00000000
Si      -2.70218522      -0.04720842       2.66861392       0.00000000
Si      -2.69570180       2.71313096      -0.10912427       0.00000000
Si      -2.73417879      -2.69752628      -0.00171696       0.00000000
Si      -0.01554066       2.67278537       2.76247636       0.00000000
