10
Lattice="16.290000149 0.0 0.0 0.0 16.290000149 0.0 0.0 0.0 29.1751946751" Properties=species:S:1:pos:R:3:initial_magmoms:R:1 pbc="T T T"
Si       1.26079714      -1.10673772       1.59617490       0.00000000
Si      -1.81118738      -1.32479567      -0.60637725       0.00000000
Si       1.21248100       1.32654358      -1.49155265       0.00000000
Si      -1.32820516       1.54909756       1.15854698       0.00000000
Si      -0.63302941      -1.12192000       2.93963427       0.00000000
H        3.11411046      -0.49743307      -0.76386495       0.00000000
Si      -0.19225458      -2.85571848      -1.68124977       0.00000000
Si       2.74719450       2.04547016       0.12131046       0.00000000
Si      -3.03497364       0.54695305      -1.55719684       0.00000000
Si      -2.53685801      -1.66904735       1.65750116       0.00000000
