10
Lattice="16.290000149 0.0 0.0 0.0 16.290000149 0.0 0.0 0.0 29.1751946751" Properties=species:S:1:pos:R:3:initial_magmoms:R:1 pbc="T T T"
Si      -1.31246902      -1.35985663      -1.34533825       0.00000000
Si       1.31720941      -1.39134520       1.34170885       0.00000000
Si      -1.41874498       1.33074640       1.30232234       0.00000000
Si       1.30901554       1.28966302      -1.47031603       0.00000000
Si      -0.04531878       2.65742030       2.66602929       0.00000000
Si       2.69570180      -0.02736720       2.64671531       0.00000000
Si       2.68095935       2.69591357      -0.15807120       0.00000000
Si       2.64448604      -2.75032218      -0.02462386       0.00000000
Si      -2.77022856      -0.04481379       2.64925355       0.00000000
Si      -2.77039146       2.64960110      -0.10561420       0.00000000
