10
Lattice="16.290000149 0.0 0.0 0.0 16.290000149 0.0 0.0 0.0 29.1751946751" Properties=species:S:1:pos:R:3:initial_magmoms:R:1 pbc="T T T"
Si      -1.34420194      -1.32616891      -1.40849087       0.00000000
Si      -1.38715867       1.35075052       1.35288295       0.00000000
Si       1.35389449       1.34687350      -1.39568296       0.00000000
Si       1.39417070      -1.35490447       1.35081151       0.00000000
Si      -2.68413590      -2.67496463      -0.03614807       0.00000000
Si       2.66389558      -2.71692767      -0.07317139       0.00000000
Si       0.02153538       2.71557560       2.67040557       0.00000000
Si      -2.71865441       2.66607029      -0.09003465       0.00000000
Si       2.75377077       0.05341491       2.66439548       0.00000000
Si      -2.73689921      -0.03422529       2.70877095       0.00000000
