10
Lattice="16.290000149 0.0 0.0 0.0 16.290000149 0.0 0.0 0.0 29.1751946751" Properties=species:S:1:pos:R:3:initial_magmoms:R:1 pbc="T T T"
Si       1.36419140       1.33024141       1.37902393       0.00000000
Si       1.35456401      -1.38862477      -1.33012630       0.00000000
Si      -1.34091136      -1.35291709       1.38550082       0.00000000
Si      -1.34840476       1.38456856      -1.36192726       0.00000000
Si      -2.69210171       2.68819211       0.06173471       0.00000000
Si       2.71101440       2.67791312       0.01050307       0.00000000
Si      -2.69708645      -2.70247844       0.03066313       0.00000000
Si       2.70060509      -0.05970285      -2.71123334       0.00000000
Si      -2.69518052       0.05207913      -2.75134631       0.00000000
Si       0.03377631       2.67954212       2.77038896       0.00000000
