10
Lattice="16.290000149 0.0 0.0 0.0 16.290000149 0.0 0.0 0.0 29.1751946751" Properties=species:S:1:pos:R:3:initial_magmoms:R:1 pbc="T T T"
Si      -1.37117818       1.35679411       1.33257702       0.00000000
Si      -1.37331217      -1.34741107      -1.34322596       0.00000000
Si       1.34990344       1.36475992      -1.35664655       0.00000000
Si       1.36884871      -1.34444629       1.36414458       0.00000000
Si      -0.00343719       2.71505432       2.66115703       0.00000000
Si      -0.01335780      -2.70484049      -2.68271750       0.00000000
Si       2.71896392      -2.69421127      -0.00910266       0.00000000
Si       2.72080469       0.01897785      -2.69532118       0.00000000
Si      -2.70329294       0.02254536      -2.71588970       0.00000000
Si      -2.71767701      -2.70270976       0.02243572       0.00000000
