10
Lattice="16.290000149 0.0 0.0 0.0 16.290000149 0.0 0.0 0.0 29.1751946751" Properties=species:S:1:pos:R:3:initial_magmoms:R:1 pbc="T T T"
Si       1.36011727      -1.35172792      -1.35311635       0.00000000
Si       1.37407780       1.36378252       1.33213939       0.00000000
Si      -1.35376417      -1.34726446       1.37426837       0.00000000
Si      -1.35466012       1.35141841      -1.36930859       0.00000000
Si       0.00024435       2.72279207       2.65263787       0.00000000
Si       2.68433138      -2.71617833       0.03926981       0.00000000
Si      -2.71441901      -2.69325830       0.00711875       0.00000000
Si      -2.72389979       0.03999195       2.68490564       0.00000000
Si       0.00021177      -2.69553890      -2.71641485       0.00000000
Si       2.71583624       0.02581965      -2.70938363       0.00000000
