10
Lattice="16.290000149 0.0 0.0 0.0 16.290000149 0.0 0.0 0.0 29.1751946751" Properties=species:S:1:pos:R:3:initial_magmoms:R:1 pbc="T T T"
Si      -1.21248100      -1.32654358       1.49155265       0.00000000
Si       1.53471349       0.71892658       1.61286311       0.00000000
Si       0.63144928      -1.07621515      -2.04316806       0.00000000
Si      -1.48483351       1.86807206      -0.35512047       0.00000000
H        1.90162946      -1.82397666       0.72768771       0.00000000
H        3.06540336       0.33827814      -0.99855021       0.00000000
Si      -1.85556134       1.22049568      -2.58010834       0.00000000
Si       0.31253994       2.57352680       2.27896198       0.00000000
Si       3.15708348       1.41420007       0.06182224       0.00000000
Si      -2.54068616       0.22255398       2.65009963       0.00000000
