10
Lattice="16.290000149 0.0 0.0 0.0 16.290000149 0.0 0.0 0.0 29.1751946751" Properties=species:S:1:pos:R:3:initial_magmoms:R:1 pbc="T T T"
Si      -1.32581053      -1.33618482      -1.33647774       0.00000000
Si       1.31666370      -1.43544875       1.27603549       0.00000000
Si      -1.44290305       1.33150552       1.28286249       0.00000000
Si       1.29903150       1.29035698      -1.47268214       0.00000000
Si       2.63085457      -0.05152527       2.63982996       0.00000000
Si      -0.07428240       2.68038269       2.62080774       0.00000000
Si      -2.74248669       0.00633518      -2.59192138       0.00000000
Si       2.66123542       2.68536743      -0.15401585       0.00000000
Si      -0.15139926       2.67477893      -2.69983167       0.00000000
Si      -0.08175951      -2.77023507       2.61071312       0.00000000
