10
Lattice="16.290000149 0.0 0.0 0.0 16.290000149 0.0 0.0 0.0 29.1751946751" Properties=species:S:1:pos:R:3:initial_magmoms:R:1 pbc="T T T"
Si       2.30575178       0.05828562      -0.44603038       0.00000000
Si      -0.84893707       2.08469648      -0.78128254       0.00000000
Si      -0.12937518       0.41528097       2.36453283       0.00000000
Si      -0.93512746      -2.06749098      -0.83554840       0.00000000
H       -2.28506348       0.16399143       0.94431353       0.00000000
H       -1.01050129       2.87046093       0.49883748       0.00000000
Si      -3.57629034       0.16376337       0.14301680       0.00000000
Si       3.08024355       2.10191501       0.43675266       0.00000000
Si       2.07423830       0.03244968       3.16991408       0.00000000
Si      -3.12184821      -1.30866857      -1.71780629       0.00000000
