10
Lattice="16.290000149 0.0 0.0 0.0 16.290000149 0.0 0.0 0.0 29.1751946751" Properties=species:S:1:pos:R:3:initial_magmoms:R:1 pbc="T T T"
Si       1.34682300       1.34767171      -1.36852086       0.00000000
Si       1.35091179      -1.35913987       1.35979747       0.00000000
Si      -1.33041510       1.34930071       1.39136503       0.00000000
Si      -1.36419140      -1.33024141      -1.37902393       0.00000000
Si       2.67747167       2.69353523       0.04595093       0.00000000
Si      -2.70510276      -2.68315850       0.00647689       0.00000000
Si      -2.69881482       2.70607853       0.05041474       0.00000000
Si       2.69092721       0.00436572       2.72449638       0.00000000
Si       2.69864867      -0.02161683      -2.72723885       0.00000000
Si      -2.67828942      -0.00431685       2.74906189       0.00000000
