10
Lattice="16.290000149 0.0 0.0 0.0 16.290000149 0.0 0.0 0.0 29.1751946751" Properties=species:S:1:pos:R:3:initial_magmoms:R:1 pbc="T T T"
Si      -1.38623014      -1.27573507      -1.37915171       0.00000000
Si       1.20326086      -1.39647655       1.44221740       0.00000000
Si      -1.41856579       1.38202732       1.28481139       0.00000000
Si       1.87401791       0.80290153      -1.19568934       0.00000000
Si       2.51919965      -2.71977680       0.04212315       0.00000000
Si       2.63176355       0.00715131       2.68538411       0.00000000
Si       2.68387526       2.66199779      -0.01374735       0.00000000
Si       3.50704155      -0.93274912      -1.11147572       0.00000000
Si      -2.72134878      -2.68071826      -0.02255534       0.00000000
Si      -0.09829386       2.72337851       2.67919897       0.00000000
