10
Lattice="16.290000149 0.0 0.0 0.0 16.290000149 0.0 0.0 0.0 29.1751946751" Properties=species:S:1:pos:R:3:initial_magmoms:R:1 pbc="T T T"
H       -1.44541171       0.27969930       0.43748204       0.00000000
Si       0.43745166      -2.12996639       0.90492701       0.00000000
Si      -0.35723970       0.22516038      -2.36403685       0.00000000
Si       1.22429125       1.58027662       1.41400499       0.00000000
H        0.18150318       2.68899032      -0.98965178       0.00000000
H        1.55527636      -1.37665162      -2.11596017       0.00000000
H        0.34577154      -3.20588832      -0.15544544       0.00000000
Si      -0.78781699       2.94365190       1.49172770       0.00000000
Si       3.41666463       0.16312806       0.37192538       0.00000000
Si      -2.66502773       2.23472738       0.21662582       0.00000000
