10
Lattice="16.290000149 0.0 0.0 0.0 16.290000149 0.0 0.0 0.0 29.1751946751" Properties=species:S:1:pos:R:3:initial_magmoms:R:1 pbc="T T T"
Si       1.36410832       1.34983828      -1.34973203       0.00000000
Si       1.37393119      -1.35324289       1.34369277       0.00000000
Si      -1.35195598       1.36106209       1.36128541       0.00000000
Si      -1.36920709      -1.36168111      -1.35262038       0.00000000
Si      -0.00195480      -2.67527414       2.70582425       0.00000000
Si      -0.02557530       2.69814205      -2.68315513       0.00000000
Si       2.66507660      -2.72067437      -0.06806573       0.00000000
Si       2.68403816      -0.01866834      -2.73380327       0.00000000
Si       2.72574056       2.69263928       0.02809571       0.00000000
Si      -2.68850325       0.01039302       2.73179018       0.00000000
