10
Lattice="16.290000149 0.0 0.0 0.0 16.290000149 0.0 0.0 0.0 29.1751946751" Properties=species:S:1:pos:R:3:initial_magmoms:R:1 pbc="T T T"
Si      -0.45115155      -1.28428732       0.66303547       0.00000000
H        0.51816861      -1.53894889      -1.81834401       0.00000000
Si       1.55396827      -0.43407963      -2.03167303       0.00000000
Si       2.71870003      -0.59248360      -0.01213688       0.00000000
Si      -1.26376192      -0.30030615       2.60610344       0.00000000
Si      -2.32836230      -1.99321184      -0.61206641       0.00000000
Si       1.56095668      -2.64766259       0.58531276       0.00000000
Si      -2.76654702       1.00939357       1.31017047       0.00000000
Si      -1.85287349       2.84615625       0.14047856       0.00000000
Si       0.29188422       1.20809899      -3.18520188       0.00000000
