10
Lattice="16.290000149 0.0 0.0 0.0 16.290000149 0.0 0.0 0.0 29.1751946751" Properties=species:S:1:pos:R:3:initial_magmoms:R:1 pbc="T T T"
Si       1.35589816      -1.35451351       1.30170966       0.00000000
Si       1.37518552       1.25159329      -1.42905939       0.00000000
Si      -1.30893409      -1.43518159      -1.31807694       0.00000000
Si      -1.19705437       1.39662316       1.48102041       0.00000000
Si      -2.56699288       2.63515187       0.03573961       0.00000000
Si       2.72499122       2.59230917      -0.11387078       0.00000000
Si      -2.63822417      -0.07597656      -2.68309678       0.00000000
Si       2.74361070      -0.00987174       2.60184386       0.00000000
Si      -2.55851231      -0.03388320       2.78477233       0.00000000
Si       0.01824480      -2.66688479       2.69383325       0.00000000
