10
Lattice="16.290000149 0.0 0.0 0.0 16.290000149 0.0 0.0 0.0 29.1751946751" Properties=species:S:1:pos:R:3:initial_magmoms:R:1 pbc="T T T"
Si      -1.74565271      -0.32590589       1.49280719       0.00000000
Si       0.10990863      -2.30591957      -0.23343073       0.00000000
Si      -0.98526808       0.85942620      -1.98756014       0.00000000
Si       1.83425402       1.18664017       1.00753617       0.00000000
H       -0.42492465       2.66567445       1.50036356       0.00000000
Si      -2.50465268       2.17889666      -0.79344859       0.00000000
Si       1.71004277      -2.23170233      -2.02577964       0.00000000
Si      -1.06906384       3.50876341       0.42181496       0.00000000
Si       0.39785067      -3.19170462       2.00792442       0.00000000
Si      -3.65896209       0.72971219       0.70361817       0.00000000
