10
Lattice="10.86 0.0 0.0 0.0 10.86 0.0 0.0 0.0 10.86" Properties=species:S:1:pos:R:3:initial_magmoms:R:1 pbc="T T T"
Si       1.11822162       1.30309140      -1.41967350       0.00000000
Si      -1.59677838       1.30309140       1.29532650       0.00000000
Si      -1.59677838      -1.41190860      -1.41967350       0.00000000
Si       2.34116622       0.01241298       2.49544338       0.00000000
Si       2.33040396      -2.72159202      -0.00184620       0.00000000
Si       2.47572162       2.66059140      -0.06217350       0.00000000
Si       2.47572162      -0.05440860      -2.77717350       0.00000000
Si      -0.23927838       2.66059140       2.65282650       0.00000000
Si      -0.23927838       2.66059140      -2.77717350       0.00000000
Si      -0.23927838      -2.76940860      -2.77717350       0.00000000
