10
Lattice="16.290000149 0.0 0.0 0.0 16.290000149 0.0 0.0 0.0 29.1751946751" Properties=species:S:1:pos:R:3:initial_magmoms:R:1 pbc="T T T"
Si      -0.43204338       0.25319547      -2.28449243       0.00000000
Si       0.80757676       1.86111623       1.17876072       0.00000000
Si      -1.87229117      -0.80319475       1.19788506       0.00000000
Si       1.63113400      -1.73548775       0.08474636       0.00000000
Si       2.18126360       0.59425921       2.59620546       0.00000000
Si      -0.67445488      -2.20108853       2.63945477       0.00000000
Si      -2.13895847       1.89724745      -2.17940338       0.00000000
Si      -0.48330801      -2.03950802      -2.95633881       0.00000000
Si       1.71458768      -2.42440814      -2.14567686       0.00000000
Si       0.63858430      -3.52181658       1.23463414       0.00000000
