10
Lattice="16.290000149 0.0 0.0 0.0 16.290000149 0.0 0.0 0.0 29.1751946751" Properties=species:S:1:pos:R:3:initial_magmoms:R:1 pbc="T T T"
Si       1.35615880       1.36777357       1.33698247       0.00000000
Si      -1.32822797       1.36062226      -1.37432672       0.00000000
Si       1.38378664      -1.35462754      -1.33453175       0.00000000
Si      -1.34676762      -1.35440926       1.37607723       0.00000000
Si       2.71119359       0.00133578       2.67425669       0.00000000
Si      -2.69922044      -0.00811242      -2.69855963       0.00000000
Si       0.02689479      -2.71722089      -2.68420544       0.00000000
Si       0.05905125      -2.69276960       2.70920858       0.00000000
Si      -2.69343749       2.71062344      -0.02342768       0.00000000
Si      -0.02127474       2.71332758       2.69476686       0.00000000
