10
Lattice="16.290000149 0.0 0.0 0.0 16.290000149 0.0 0.0 0.0 29.1751946751" Properties=species:S:1:pos:R:3:initial_magmoms:R:1 pbc="T T T"
Si       1.25537257       1.37210671      -1.42627024       0.00000000
Si       1.37368684      -1.26685702       1.41744474       0.00000000
Si      -0.80757676      -1.86111623      -1.17876072       0.00000000
Si      -1.42864930       1.37411038       1.29393739       0.00000000
Si      -2.67986792      -2.66431097       0.01912434       0.00000000
Si      -0.05383845      -2.65654064       2.70024012       0.00000000
Si       2.66405033      -2.71639010       0.09163345       0.00000000
Si       2.64259640       2.74812303      -0.08165262       0.00000000
Si      -0.08656506       2.74418085       2.65735259       0.00000000
Si       0.82355725      -3.59660397      -1.09401437       0.00000000
