10
Lattice="16.290000149 0.0 0.0 0.0 16.290000149 0.0 0.0 0.0 29.1751946751" Properties=species:S:1:pos:R:3:initial_magmoms:R:1 pbc="T T T"
Si      -1.37046957       1.34327341      -1.35623810       0.00000000
Si      -1.33050531      -1.39797523       1.34293421       0.00000000
Si       1.29907864      -1.35692443      -1.41771023       0.00000000
Si       1.35716878       1.38132685       1.34967368       0.00000000
Si       2.77690746       0.01006722       2.60409035       0.00000000
Si      -2.73559602      -0.07995132       2.65578880       0.00000000
Si       2.60941367      -2.78376555      -0.12028933       0.00000000
Si      -0.01106091       2.69430086      -2.70973373       0.00000000
Si      -2.70918020       2.70624143       0.01604636       0.00000000
Si      -2.71920827      -0.03429045      -2.70757477       0.00000000
