10
Lattice="16.290000149 0.0 0.0 0.0 16.290000149 0.0 0.0 0.0 29.1751946751" Properties=species:S:1:pos:R:3:initial_magmoms:R:1 pbc="T T T"
Si       1.37813401       1.31890357      -1.36356107       0.00000000
Si      -1.37337733      -1.32519151      -1.36475726       0.00000000
Si       1.35602848      -1.37041255       1.33887886       0.00000000
Si      -1.36943515       1.37951866       1.32140292       0.00000000
Si      -0.05585841       2.63873567      -2.64598593       0.00000000
Si       0.04572603      -2.65667096      -2.66594176       0.00000000
Si       2.72647361      -0.01032786       2.66783815       0.00000000
Si      -2.72894969       0.01671354       2.66565001       0.00000000
Si      -0.01510083       2.73150722       2.68344688       0.00000000
Si       0.00022806      -2.72606636       2.69628397       0.00000000
