10
Lattice="16.290000149 0.0 0.0 0.0 16.290000149 0.0 0.0 0.0 29.1751946751" Properties=species:S:1:pos:R:3:initial_magmoms:R:1 pbc="T T T"
Si      -1.30093081       0.28497726       1.92074894       0.00000000
Si       2.21343635      -0.06797817       0.80497280       0.00000000
Si      -1.30257773      -0.14848335      -2.02160759       0.00000000
Si      -0.55030878       2.39055752       0.73900768       0.00000000
Si      -0.49560696      -1.98035903       1.66829598       0.00000000
H        2.05737815       0.72971056       2.07919942       0.00000000
H       -2.44370853       0.81321310      -1.73064337       0.00000000
H        0.21624975      -1.61811829      -2.65788941       0.00000000
H        0.78161050      -1.95559823       2.49258276       0.00000000
H        0.65249596       2.76273516       1.61995268       0.00000000
