10
Lattice="16.290000149 0.0 0.0 0.0 16.290000149 0.0 0.0 0.0 29.1751946751" Properties=species:S:1:pos:R:3:initial_magmoms:R:1 pbc="T T T"
Si      -1.37888335       1.34778574       1.32029426       0.00000000
Si      -1.37044513      -1.36008469      -1.32895929       0.00000000
Si       1.35138583       1.39189906      -1.32607095       0.00000000
Si       1.35689185      -1.32905224       1.38745556       0.00000000
Si       0.04215852       2.65738772       2.63338225       0.00000000
Si       0.01410714      -2.67558365      -2.68659780       0.00000000
Si       2.70358616      -2.67810860       0.02205645       0.00000000
Si      -2.72647361       0.01032786      -2.66783815       0.00000000
Si      -2.72730440      -0.01040931       2.67323556       0.00000000
Si       2.69560406       0.05919786      -2.71040476       0.00000000
