10
Lattice="16.290000149 0.0 0.0 0.0 16.290000149 0.0 0.0 0.0 29.1751946751" Properties=species:S:1:pos:R:3:initial_magmoms:R:1 pbc="T T T"
Si      -1.32779791       1.31191516       1.42422506       0.00000000
Si      -1.42648273      -1.35957970      -1.28022855       0.00000000
Si       1.32875902      -1.39580866       1.37040557       0.00000000
Si       1.33732756       1.36580379      -1.40632316       0.00000000
Si       0.01997154      -2.55344123      -2.63372360       0.00000000
Si       2.63689490       2.64318284       0.10307013       0.00000000
Si      -2.60056332       2.69476024       0.04131208       0.00000000
Si      -2.73710284      -0.08162919       2.68298883       0.00000000
Si       2.66809025      -0.07522722       2.77640780       0.00000000
Si       2.71316468      -2.75190231       0.04868465       0.00000000
