10
Lattice="16.290000149 0.0 0.0 0.0 16.290000149 0.0 0.0 0.0 29.1751946751" Properties=species:S:1:pos:R:3:initial_magmoms:R:1 pbc="T T T"
Si       1.70691509      -1.64405197      -0.10508905       0.00000000
Si      -2.05183955      -0.98355763      -0.73588594       0.00000000
Si       1.38349342       1.73345150      -0.91942708       0.00000000
Si      -1.02625372       1.22883616       1.84171334       0.00000000
H        0.79452847      -1.48657654      -2.65473849       0.00000000
H       -0.61035373       0.54644805      -3.11398523       0.00000000
Si       2.13895847      -1.89724745       2.17940338       0.00000000
Si      -2.38248908       2.63984339       0.52871288       0.00000000
Si      -3.49189348       0.93962350      -0.72296132       0.00000000
Si       3.57671388      -0.74862325      -1.38264165       0.00000000
