10
Lattice="16.290000149 0.0 0.0 0.0 16.290000149 0.0 0.0 0.0 29.1751946751" Properties=species:S:1:pos:R:3:initial_magmoms:R:1 pbc="T T T"
Si       1.31033503      -1.42684111       1.29742091       0.00000000
Si      -1.35125551      -1.38559483      -1.32294920       0.00000000
Si       1.37508778       1.33097446      -1.35533367       0.00000000
Si      -1.29907864       1.35692443       1.41771023       0.00000000
Si       2.66092265      -0.08431704       2.60986704       0.00000000
Si      -2.66954821       2.70019784       0.06147214       0.00000000
Si       0.00809613       2.68872968      -2.68277585       0.00000000
Si      -2.69043525      -0.02598255      -2.68513904       0.00000000
Si      -2.62958395      -0.04105080       2.76064445       0.00000000
Si       0.03661992      -2.73587295      -2.65733508       0.00000000
