10
Lattice="16.290000149 0.0 0.0 0.0 16.290000149 0.0 0.0 0.0 29.1751946751" Properties=species:S:1:pos:R:3:initial_magmoms:R:1 pbc="T T T"
Si      -0.86884345       1.25331352      -1.68826349       0.00000000
Si      -1.83529658      -1.01501362       0.94282851       0.00000000
Si       1.03358422       1.84524814       0.96625327       0.00000000
Si       1.75078406      -1.53733618      -0.45825187       0.00000000
H       -0.99743671       2.65282652      -1.10047084       0.00000000
Si      -0.42959988      -2.37851921       2.19691258       0.00000000
Si       1.50537520      -1.00826956      -2.75633819       0.00000000
Si       2.45460980       0.51039503       2.21679256       0.00000000
Si       0.99958699       1.26233166      -3.02956389       0.00000000
Si       0.99075781      -0.92268190       3.42792783       0.00000000
