10
Lattice="16.290000149 0.0 0.0 0.0 16.290000149 0.0 0.0 0.0 29.1751946751" Properties=species:S:1:pos:R:3:initial_magmoms:R:1 pbc="T T T"
Si      -1.14930838      -0.13010823       2.05682205       0.00000000
Si      -1.52836039       0.99512353      -1.50529417       0.00000000
Si       0.99326647      -1.76868677      -1.26678695       0.00000000
Si       1.52505352       1.85383460       0.43780297       0.00000000
H       -2.05903973      -2.80396515      -0.91067453       0.00000000
H        0.70700230      -2.97882201       1.92036966       0.00000000
Si       2.29304558      -0.47273580      -2.76461227       0.00000000
Si      -2.55461411       2.62039965      -0.18820918       0.00000000
Si      -0.23947929       2.43517160      -2.78585181       0.00000000
Si       0.41308182       0.65270773       3.64048079       0.00000000
