10
Lattice="16.290000149 0.0 0.0 0.0 16.290000149 0.0 0.0 0.0 29.1751946751" Properties=species:S:1:pos:R:3:initial_magmoms:R:1 pbc="T T T"
Si      -1.32937804       1.35786925       1.36598261       0.00000000
Si       1.37430586      -1.33931494       1.36210231       0.00000000
Si       1.41043708       1.40831938      -1.25529484       0.00000000
Si      -1.42187266      -1.43110909      -1.23110569       0.00000000
Si       0.07301178      -2.68172661      -2.49971901       0.00000000
Si       2.67832037       0.00829161      -2.61458467       0.00000000
Si      -2.66651012      -0.05874174      -2.64705958       0.00000000
Si       0.04829985       2.72130968       2.67241866       0.00000000
Si      -2.64655487       2.75055024       0.02523654       0.00000000
Si       0.09541053       2.66861153      -2.73070486       0.00000000
