10
Lattice="16.290000149 0.0 0.0 0.0 16.290000149 0.0 0.0 0.0 29.1751946751" Properties=species:S:1:pos:R:3:initial_magmoms:R:1 pbc="T T T"
Si      -1.27276540       1.38284508      -1.38291298       0.00000000
Si       1.30116376       1.32296304       1.42698795       0.00000000
Si       1.32779791      -1.31191516      -1.42422506       0.00000000
Si      -1.40930493      -1.39354435       1.25876377       0.00000000
Si       2.65165364       2.65199573       0.08366571       0.00000000
Si       2.65655693      -2.70772382      -0.05381948       0.00000000
Si      -0.04329882      -2.74160703       2.63058143       0.00000000
Si      -0.09868482      -2.67149486      -2.70445360       0.00000000
Si      -2.70789518       2.67731039      -0.02621975       0.00000000
Si      -2.69084364      -0.05079222       2.71682330       0.00000000
