10
Lattice="16.290000149 0.0 0.0 0.0 16.290000149 0.0 0.0 0.0 29.1751946751" Properties=species:S:1:pos:R:3:initial_magmoms:R:1 pbc="T T T"
Si      -0.34394706       0.88296688       2.13504075       0.00000000
Si      -1.85595230      -0.93085948      -1.10606081       0.00000000
Si       1.05485896       1.76327849      -1.18174126       0.00000000
Si       1.60168168      -1.77631049      -0.08892599       0.00000000
Si       2.13711770       0.34296966      -2.67977081       0.00000000
Si      -0.67285846      -2.38216817      -2.51799435       0.00000000
Si       1.27752697       2.57092040       2.20328153       0.00000000
Si       2.23083407      -2.17818479       2.05936029       0.00000000
Si       3.43240077      -0.95086360      -1.25333719       0.00000000
Si      -3.15721380      -2.16821531       0.39404018       0.00000000
