10
Lattice="16.290000149 0.0 0.0 0.0 16.290000149 0.0 0.0 0.0 29.1751946751" Properties=species:S:1:pos:R:3:initial_magmoms:R:1 pbc="T T T"
Si      -0.53730936      -0.25956486       1.38433381       0.00000000
H       -0.66987739      -0.93243961      -1.61779372       0.00000000
H       -1.60174684       0.83013841      -1.17529354       0.00000000
H        1.29127573       1.74886184       0.42995484       0.00000000
Si       0.46157715      -0.99554707      -2.62209145       0.00000000
Si       2.19248741       1.82000027      -0.79166891       0.00000000
Si       2.52566678      -0.30164193      -1.72308700       0.00000000
Si       1.15553116      -1.18705231       2.69374572       0.00000000
Si      -2.33236964      -1.85808629       1.26287748       0.00000000
Si      -1.38924379       1.61248195       2.50180212       0.00000000
