10
Lattice="16.290000149 0.0 0.0 0.0 16.290000149 0.0 0.0 0.0 29.1751946751" Properties=species:S:1:pos:R:3:initial_magmoms:R:1 pbc="T T T"
Si      -1.67612699       1.68003659       0.25268636       0.00000000
Si       0.36466794      -0.24689124       2.35998150       0.00000000
Si       1.63734049       1.05836131      -1.43241453       0.00000000
Si      -1.07113267      -1.68777434      -1.38620102       0.00000000
H        1.88570110      -1.64224378       0.26272263       0.00000000
H        0.53989947       2.46273851       1.37254703       0.00000000
H       -1.07673643       0.04287528       2.79991426       0.00000000
Si      -2.41409657      -0.27272718      -2.75556796       0.00000000
Si       0.34590186       2.47332701      -2.79054902       0.00000000
Si      -3.53896995       0.84346363      -1.00222629       0.00000000
