10
Lattice="16.290000149 0.0 0.0 0.0 16.290000149 0.0 0.0 0.0 29.1751946751" Properties=species:S:1:pos:R:3:initial_magmoms:R:1 pbc="T T T"
Si      -1.36490653      -1.34835589       1.34833162       0.00000000
Si      -1.36186030       1.36552555      -1.33657402       0.00000000
Si       1.36098064       1.34288245       1.36289004       0.00000000
Si       1.36213723      -1.36277417      -1.34520988       0.00000000
Si       0.01081656      -2.69428457       2.68458471       0.00000000
Si       2.71238276       0.02596626      -2.67909978       0.00000000
Si       0.00869886       2.72315045      -2.67521948       0.00000000
Si      -2.74828593       0.01604565      -2.66080693       0.00000000
Si       0.00114030       2.69526197       2.71518949       0.00000000
Si      -2.71642268      -2.71689509      -0.00285917       0.00000000
