10
Lattice="16.290000149 0.0 0.0 0.0 16.290000149 0.0 0.0 0.0 29.1751946751" Properties=species:S:1:pos:R:3:initial_magmoms:R:1 pbc="T T T"
Si      -1.19391040      -1.14753863      -1.69038160       0.00000000
Si       0.57062242      -1.72887563       1.53327318       0.00000000
Si      -1.99474310       0.88788483       0.97194244       0.00000000
Si       1.43784110       1.42138233      -1.34494730       0.00000000
H        0.50556015       2.25499051       2.03251911       0.00000000
Si      -2.48279150      -2.58758670      -0.40982396       0.00000000
Si      -2.73786033       2.21431438      -0.81384206       0.00000000
Si      -2.62910828       0.47967372      -2.61721919       0.00000000
Si      -3.50904522      -0.96231058       0.90726103       0.00000000
H       -0.82785781       0.10358974       3.70942178       0.00000000
