10
Lattice="16.290000149 0.0 0.0 0.0 16.290000149 0.0 0.0 0.0 29.1751946751" Properties=species:S:1:pos:R:3:initial_magmoms:R:1 pbc="T T T"
Si       1.49051872      -1.26571672      -1.28280413       0.00000000
Si      -1.34296390       1.41504715      -1.36936694       0.00000000
Si      -1.39452175      -1.82061929       0.74840209       0.00000000
Si       1.07113267       1.68777434       1.38620102       0.00000000
H        2.95683377       0.04553055       1.64892365       0.00000000
Si      -2.46783728       2.53123796       0.38397474       0.00000000
Si       0.06260247      -2.53584803      -2.68764811       0.00000000
Si      -0.60499432       3.36781092       1.63888739       0.00000000
Si       2.78117967      -2.61355133       0.21729685       0.00000000
Si      -3.14623434      -0.84880675       2.01705626       0.00000000
