10
Lattice="16.290000149 0.0 0.0 0.0 16.290000149 0.0 0.0 0.0 29.1751946751" Properties=species:S:1:pos:R:3:initial_magmoms:R:1 pbc="T T T"
Si       0.60082408       0.08998596       1.40023429       0.00000000
H        2.11307366      -0.76359376      -0.30864438       0.00000000
Si       1.39370725      -0.84359395      -1.63311070       0.00000000
Si      -0.47649879      -2.30739707      -1.79424530       0.00000000
Si      -1.11320974       0.54165880       2.92195410       0.00000000
H       -3.10705689      -0.64534465       0.72739595       0.00000000
Si       1.08001072      -1.94041595       2.45873953       0.00000000
Si       1.04912488       1.10742679      -3.00166073       0.00000000
H       -1.70217470      -2.67836924       1.18664269       0.00000000
Si       2.49419450       1.59128866       1.72130731       0.00000000
