10
Lattice="16.290000149 0.0 0.0 0.0 16.290000149 0.0 0.0 0.0 29.1751946751" Properties=species:S:1:pos:R:3:initial_magmoms:R:1 pbc="T T T"
Si      -1.34527708      -1.29323053       1.36939611       0.00000000
Si       1.25879347       1.31768019       1.46792074       0.00000000
Si       1.36391284      -1.36946773      -1.34378029       0.00000000
Si      -1.42646644       1.36570148      -1.29464926       0.00000000
Si       2.41743602       2.76074778      -0.03363900       0.00000000
Si       2.70646949       0.01023012      -2.65669323       0.00000000
Si      -0.04650795      -2.69421941      -2.69855963       0.00000000
Si      -0.11932425       2.71376741      -2.71711506       0.00000000
Si      -2.76061746      -2.68594409       0.07232531       0.00000000
Si      -2.77146660       0.01966203      -2.68216317       0.00000000
