10
Lattice="16.290000149 0.0 0.0 0.0 16.290000149 0.0 0.0 0.0 29.1751946751" Properties=species:S:1:pos:R:3:initial_magmoms:R:1 pbc="T T T"
Si       1.38974878       1.26522802       1.38543984       0.00000000
Si      -1.58569468       1.25685496      -1.19364445       0.00000000
Si       1.25175619      -1.34181709      -1.49079381       0.00000000
Si      -1.33683398      -1.40181641       1.36043087       0.00000000
Si      -2.88267843      -0.78335353      -1.66779971       0.00000000
Si      -2.67182897      -2.63981326      -0.10263804       0.00000000
Si      -0.03301983       2.64798839       2.66762838       0.00000000
Si       2.60105690      -2.73077287      -0.08720437       0.00000000
Si       2.58758507      -0.13266576       2.82700955       0.00000000
Si       3.26203995       2.06842277       0.18755478       0.00000000
