10
Lattice="16.290000149 0.0 0.0 0.0 16.290000149 0.0 0.0 0.0 29.1751946751" Properties=species:S:1:pos:R:3:initial_magmoms:R:1 pbc="T T T"
Si      -1.60669900       0.18451683       1.68985645       0.00000000
Si       0.81358777       1.96405437      -0.99741238       0.00000000
Si       1.76103047      -1.15799095       1.03872446       0.00000000
Si      -1.56239020      -0.78281596      -1.58365874       0.00000000
H        0.41791995       2.86815263       1.39008133       0.00000000
H       -0.28650852       3.03359225      -1.02652922       0.00000000
Si      -2.11248722       2.45511805       1.41663075       0.00000000
Si       1.11197170       1.20112687      -3.20267782       0.00000000
Si       0.61318819      -2.79454953       2.22603818       0.00000000
Si      -2.47809998      -2.61404003      -0.40836520       0.00000000
