10
Lattice="16.290000149 0.0 0.0 0.0 16.290000149 0.0 0.0 0.0 29.1751946751" Properties=species:S:1:pos:R:3:initial_magmoms:R:1 pbc="T T T"
Si       1.35940866       1.35102745      -1.35349563       0.00000000
Si       1.37046957      -1.34327341       1.35623810       0.00000000
Si      -1.33871063       1.36296802       1.37228446       0.00000000
Si      -1.34873871      -1.37756386      -1.35133667       0.00000000
Si      -2.68728802      -0.04838130       2.67737844       0.00000000
Si       2.66954821      -2.70019784      -0.06147214       0.00000000
Si      -0.02944255       2.70080057      -2.68321348       0.00000000
Si      -2.69212615      -0.01969461      -2.71979917       0.00000000
Si       2.67764434      -0.01146816      -2.74424799       0.00000000
Si       2.72763835       0.03805344       2.70591178       0.00000000
