10
Lattice="16.290000149 0.0 0.0 0.0 16.290000149 0.0 0.0 0.0 29.1751946751" Properties=species:S:1:pos:R:3:initial_magmoms:R:1 pbc="T T T"
Si       0.12859326      -1.39951301      -0.58779265       0.00000000
Si      -0.70850098       1.81540649       1.91938354       0.00000000
Si      -0.52874082       1.27687537      -2.39306617       0.00000000
Si      -2.54899406       0.93519262       0.73373572       0.00000000
Si      -2.46554039       0.24627222      -1.49668749       0.00000000
Si       1.20635596       2.59605587       0.80083575       0.00000000
Si       2.03102093      -0.80757839       2.06672411       0.00000000
Si       0.99743671      -2.65282652       1.10047084       0.00000000
Si       1.99702370      -1.39049486      -1.92909305       0.00000000
Si       2.91336879       0.91183276       0.70325144       0.00000000
