10
Lattice="16.290000149 0.0 0.0 0.0 16.290000149 0.0 0.0 0.0 29.1751946751" Properties=species:S:1:pos:R:3:initial_magmoms:R:1 pbc="T T T"
Si       1.41418378       1.32669019      -1.23924557       0.00000000
Si      -1.42703659      -1.38895057      -1.17891127       0.00000000
Si       1.29528307      -1.29383326       1.42643362       0.00000000
Si      -1.08225874       1.42030882       1.49802955       0.00000000
H        2.13993587      -0.36030222       2.23674548       0.00000000
Si      -0.53543601      -2.11928015       2.59084481       0.00000000
Si       1.04565511       2.39049236       2.17617777       0.00000000
Si      -2.13711770      -0.34296966       2.67977081       0.00000000
Si       2.64598472       2.46358559       0.38525845       0.00000000
Si       0.00680922      -2.71107956      -2.46089850       0.00000000
