10
Lattice="16.290000149 0.0 0.0 0.0 16.290000149 0.0 0.0 0.0 29.1751946751" Properties=species:S:1:pos:R:3:initial_magmoms:R:1 pbc="T T T"
Si      -1.37332846      -1.34369695       1.34194225       0.00000000
Si      -1.37049400       1.34752510      -1.34138793       0.00000000
Si       1.35523027      -1.35508366      -1.36315262       0.00000000
Si       1.35940051       1.36239787       1.35679243       0.00000000
Si       0.00985545       2.69143382      -2.67463597       0.00000000
Si      -0.01063737      -2.73774630       2.64662778       0.00000000
Si       2.71963181      -2.69363297       0.00026258       0.00000000
Si      -2.72476316       0.02694366       2.69202439       0.00000000
Si       2.71191035       0.01427004      -2.70734137       0.00000000
Si      -2.72766278      -2.69568551      -0.02010171       0.00000000
