10
Lattice="16.290000149 0.0 0.0 0.0 16.290000149 0.0 0.0 0.0 29.1751946751" Properties=species:S:1:pos:R:3:initial_magmoms:R:1 pbc="T T T"
Si      -1.41623632       1.22357449      -1.37826537       0.00000000
Si      -1.31094591      -1.48981825       1.27025880       0.00000000
Si       1.50570100      -1.33284781      -1.24785225       0.00000000
Si       0.66445282       1.87929587       1.29362813       0.00000000
Si       0.04841388       2.60563439      -2.59446254       0.00000000
Si       0.25378191      -2.56443698       2.63487018       0.00000000
Si      -2.75858121       2.52556904       0.04312094       0.00000000
Si       0.06978636      -2.74234008      -2.56394528       0.00000000
Si      -2.70554096      -0.18551052      -2.69625479       0.00000000
Si      -0.98798851       3.53251911       1.19589123       0.00000000
