10
Lattice="16.290000149 0.0 0.0 0.0 16.290000149 0.0 0.0 0.0 29.1751946751" Properties=species:S:1:pos:R:3:initial_magmoms:R:1 pbc="T T T"
Si      -1.35749458      -1.34581465      -1.35708418       0.00000000
Si      -1.34421823       1.33270120       1.38433381       0.00000000
Si       1.34118829       1.35466012      -1.38281670       0.00000000
Si       1.34679205      -1.38023542       1.35273708       0.00000000
Si       0.06960717      -2.70285311      -2.62719711       0.00000000
Si      -2.70861977       2.67125051       0.02091861       0.00000000
Si       2.70644017       2.68825727      -0.00959864       0.00000000
Si      -2.69560406      -0.05919786       2.71040476       0.00000000
Si       2.69894840      -0.02533095       2.71130919       0.00000000
Si       2.69890605      -0.02450016      -2.71682330       0.00000000
