10
Lattice="16.290000149 0.0 0.0 0.0 16.290000149 0.0 0.0 0.0 29.1751946751" Properties=species:S:1:pos:R:3:initial_magmoms:R:1 pbc="T T T"
Si       1.17481852       0.57179530       1.03452323       0.00000000
Si      -1.29562516      -0.53861257      -0.93579437       0.00000000
Si      -0.05320314      -2.37739520      -1.62187825       0.00000000
Si      -0.36900108       1.83661607       2.23193157       0.00000000
Si       2.84222873       1.36226755      -0.41492962       0.00000000
Si      -3.08596134      -1.11439891       0.50969065       0.00000000
Si       2.31005234      -0.91823473       2.43188727       0.00000000
Si      -2.32068971       0.80699032      -2.55020377       0.00000000
Si      -1.83956456       3.04696308       0.77810244       0.00000000
H       -0.33487353       0.70468912      -3.61935795       0.00000000
