10
Lattice="16.290000149 0.0 0.0 0.0 16.290000149 0.0 0.0 0.0 29.1751946751" Properties=species:S:1:pos:R:3:initial_magmoms:R:1 pbc="T T T"
Si      -1.43384581       1.32212899       1.28198723       0.00000000
Si      -1.37728693      -1.33913575      -1.33327722       0.00000000
Si       1.34842105       1.35819505      -1.35294130       0.00000000
Si       1.35742942      -1.33433020       1.37709836       0.00000000
Si      -0.00680922       2.71107956       2.46089850       0.00000000
Si       0.00105885      -2.70532919      -2.64478975       0.00000000
Si       2.72730440       0.01040931      -2.67323556       0.00000000
Si      -2.72811890       0.03745071      -2.67542370       0.00000000
Si      -0.01427004       2.75224440      -2.65762683       0.00000000
Si       0.01672983      -2.66760155       2.74990797       0.00000000
