10
Lattice="16.290000149 0.0 0.0 0.0 16.290000149 0.0 0.0 0.0 29.1751946751" Properties=species:S:1:pos:R:3:initial_magmoms:R:1 pbc="T T T"
Si      -0.72119089       2.19030781       0.40807345       0.00000000
Si       1.87294277       0.54452258       1.31696829       0.00000000
Si      -1.61492545      -1.48408092       0.94157106       0.00000000
Si       0.75670309       0.34773123      -2.25716811       0.00000000
H        1.46696338      -2.17168182      -1.26351933       0.00000000
H        1.74434951       1.94403559       1.90476093       0.00000000
Si       2.55397880       1.68437298      -1.64924458       0.00000000
Si       1.21560868       3.22091096      -0.48830523       0.00000000
H       -0.42230196      -2.59926175      -2.50349428       0.00000000
Si      -0.39881178      -2.90023579       2.39067409       0.00000000
