10
Lattice="16.290000149 0.0 0.0 0.0 16.290000149 0.0 0.0 0.0 29.1751946751" Properties=species:S:1:pos:R:3:initial_magmoms:R:1 pbc="T T T"
Si       1.32897079      -1.42041797      -1.28510897       0.00000000
Si      -1.35006634      -1.37402730       1.33467763       0.00000000
Si       1.38642562       1.34947990       1.32423291       0.00000000
Si      -1.29803608       1.35034327      -1.41884807       0.00000000
Si       2.66449016      -0.08187354      -2.61150085       0.00000000
Si       0.01567098       2.69581583       2.66217816       0.00000000
Si      -2.67652847       2.69850368      -0.06832831       0.00000000
Si      -2.70790301      -0.01679499       2.67551123       0.00000000
Si      -2.72622926      -0.05532084      -2.65839414       0.00000000
Si       0.03186324      -2.73294075       2.65794776       0.00000000
