10
Lattice="16.290000149 0.0 0.0 0.0 16.290000149 0.0 0.0 0.0 29.1751946751" Properties=species:S:1:pos:R:3:initial_magmoms:R:1 pbc="T T T"
Si       1.77059270       1.00695007       1.15277029       0.00000000
Si       1.34234488      -1.30199455      -1.42138631       0.00000000
Si      -1.23154030       1.49314141      -1.35903892       0.00000000
Si      -1.29977911      -1.29595096       1.49782532       0.00000000
H       -3.15291324      -0.79706971      -1.58062452       0.00000000
Si      -2.29304558       0.47273580       2.76461227       0.00000000
Si      -2.50694957       0.03026682      -2.65713086       0.00000000
Si       3.42303402      -0.64627318       1.25050719       0.00000000
Si       2.75858121      -2.52556904      -0.04312094       0.00000000
Si       2.69307911       2.73584037      -0.12933364       0.00000000
