10
Lattice="16.290000149 0.0 0.0 0.0 16.290000149 0.0 0.0 0.0 29.1751946751" Properties=species:S:1:pos:R:3:initial_magmoms:R:1 pbc="T T T"
Si       1.34069959       1.33327135      -1.37280961       0.00000000
Si      -1.43806492       1.37083609       1.23250610       0.00000000
Si       1.34348518      -1.34622190       1.38261248       0.00000000
Si      -1.38352600      -1.34946361      -1.34095030       0.00000000
Si      -0.15729624      -2.70821252       2.54337677       0.00000000
Si       2.70114266       2.64099998       0.01630893       0.00000000
Si      -0.01399311      -2.73667115      -2.65211272       0.00000000
Si       2.71386515      -0.02596626      -2.69342480       0.00000000
Si      -2.81289207       0.05183478       2.59005708       0.00000000
Si      -0.01672983       2.66760155      -2.74990797       0.00000000
