10
Lattice="16.290000149 0.0 0.0 0.0 16.290000149 0.0 0.0 0.0 29.1751946751" Properties=species:S:1:pos:R:3:initial_magmoms:R:1 pbc="T T T"
Si      -1.42939864       1.44384787       1.12111521       0.00000000
Si      -1.36044307      -1.30772863      -1.38911854       0.00000000
Si       1.34887717       1.39128004      -1.34523905       0.00000000
Si       1.33234282      -1.31541751       1.44195482       0.00000000
H       -0.58474585       2.37737891       1.93142706       0.00000000
Si      -2.70114266      -2.64099998      -0.01630893       0.00000000
Si       0.01272249      -2.66696624      -2.70973373       0.00000000
Si       2.71798652      -2.66587481       0.08802156       0.00000000
Si       2.73245205       0.04740390      -2.68035431       0.00000000
Si      -2.72468171       2.73768114      -0.30531841       0.00000000
