10
Lattice="16.290000149 0.0 0.0 0.0 16.290000149 0.0 0.0 0.0 29.1751946751" Properties=species:S:1:pos:R:3:initial_magmoms:R:1 pbc="T T T"
Si       1.35783667      -1.35723231      -1.34083360       0.00000000
Si       1.37394748       1.34708527       1.34261328       0.00000000
Si      -1.34338744      -1.35536059       1.36621602       0.00000000
Si      -1.32916627       1.37018449      -1.37225528       0.00000000
Si       0.00327429       2.70383051       2.67542370       0.00000000
Si       2.70790301       0.01679499      -2.67551123       0.00000000
Si       0.04590522      -2.70397712       2.69940571       0.00000000
Si       0.00216657      -2.72820036      -2.67895390       0.00000000
Si      -2.68817582       2.72518670      -0.01829285       0.00000000
Si      -2.70027929      -2.71795394       0.01654234       0.00000000
