10
Lattice="16.290000149 0.0 0.0 0.0 16.290000149 0.0 0.0 0.0 29.1751946751" Properties=species:S:1:pos:R:3:initial_magmoms:R:1 pbc="T T T"
Si       1.38455227      -1.31549896      -1.35763851       0.00000000
Si       1.37044513       1.36008469       1.32895929       0.00000000
Si      -1.35602848       1.37041255      -1.33887886       0.00000000
Si      -1.35580042      -1.35565381       1.35740511       0.00000000
Si       0.00687438      -2.67893939      -2.66407455       0.00000000
Si      -0.00843822       2.70787043       2.64925355       0.00000000
Si       0.02210553       2.68931612      -2.70243993       0.00000000
Si       2.71466336      -2.68128515       0.01846790       0.00000000
Si      -2.73414621       0.01053963       2.66891763       0.00000000
Si      -2.73443943      -2.69022836       0.01251616       0.00000000
