10
Lattice="16.290000149 0.0 0.0 0.0 16.290000149 0.0 0.0 0.0 29.1751946751" Properties=species:S:1:pos:R:3:initial_magmoms:R:1 pbc="T T T"
Si      -1.39141036       1.35363385       1.31361314       0.00000000
Si       1.33980364       1.34863282      -1.37205106       0.00000000
Si      -1.40017438      -1.36997272      -1.31478015       0.00000000
Si       1.35360127      -1.30969972       1.42602517       0.00000000
Si       2.58414788      -2.74081044       0.01006544       0.00000000
Si       2.68423364       2.67498092       0.03533116       0.00000000
Si      -2.89219179      -0.00835677       2.47437744       0.00000000
Si      -0.05196510       2.64119546       2.74430634       0.00000000
Si       2.66282858      -0.02319696      -2.74477314       0.00000000
Si      -2.73489554       2.69985575      -0.06899934       0.00000000
