10
Lattice="16.290000149 0.0 0.0 0.0 16.290000149 0.0 0.0 0.0 29.1751946751" Properties=species:S:1:pos:R:3:initial_magmoms:R:1 pbc="T T T"
Si      -1.34767171       1.34364808      -1.36338602       0.00000000
Si      -1.35668008      -1.36935370       1.34418874       0.00000000
Si       1.35827650       1.35094600       1.36376530       0.00000000
Si       1.34281729      -1.30552948      -1.42220321       0.00000000
Si       0.11618028       2.77672501      -2.57452129       0.00000000
Si      -2.76802941      -0.11218923      -2.59440127       0.00000000
Si      -2.70205490       2.67716378       0.03270539       0.00000000
Si       2.69312798      -2.68594409      -0.05954657       0.00000000
Si       0.00772146      -2.70790301       2.70760394       0.00000000
Si      -2.71191035      -0.01427004       2.70734137       0.00000000
