10
Lattice="16.290000149 0.0 0.0 0.0 16.290000149 0.0 0.0 0.0 29.1751946751" Properties=species:S:1:pos:R:3:initial_magmoms:R:1 pbc="T T T"
Si       1.35048988       1.32903269      -1.34332224       0.00000000
Si      -1.35423658       1.39518638       1.29059391       0.00000000
Si       1.37098270      -1.36064181       1.31162923       0.00000000
Si      -1.30116376      -1.32296304      -1.42698795       0.00000000
Si      -2.67771602       0.01053800       2.65234612       0.00000000
Si      -0.01337409      -2.72038441       2.61826950       0.00000000
Si       0.03964986       2.73774304       2.61832785       0.00000000
Si       2.72665280       0.01032623       2.64974953       0.00000000
Si      -2.57392917       0.05988204      -2.80990093       0.00000000
Si      -2.64627957       2.75049811      -0.13957413       0.00000000
