10
Lattice="16.290000149 0.0 0.0 0.0 16.290000149 0.0 0.0 0.0 29.1751946751" Properties=species:S:1:pos:R:3:initial_magmoms:R:1 pbc="T T T"
Si       1.34054158       1.46373796      -1.23909736       0.00000000
Si       1.38586036      -1.34019460       1.37174472       0.00000000
Si      -1.36035674       1.44575380       1.29906347       0.00000000
Si      -1.22027055      -1.49079565      -1.39538829       0.00000000
Si      -2.67997707      -2.67066407       0.02084276       0.00000000
Si       2.78699585       0.26987643      -2.59259241       0.00000000
Si      -2.66585364       0.09295074       2.73015928       0.00000000
Si      -0.01186727       2.70615998      -2.70118248       0.00000000
Si       0.04217481      -2.66662415       2.75880933       0.00000000
Si       0.02992147       2.74168848       2.72412002       0.00000000
