10
Lattice="16.290000149 0.0 0.0 0.0 16.290000149 0.0 0.0 0.0 29.1751946751" Properties=species:S:1:pos:R:3:initial_magmoms:R:1 pbc="T T T"
Si      -1.38800575      -1.36042678       1.31300046       0.00000000
Si      -1.36987498       1.34213311      -1.35282460       0.00000000
Si       1.35143470      -1.37064061      -1.35008213       0.00000000
Si       1.37806885       1.36534636       1.33549454       0.00000000
Si       2.77307931      -0.08511525       2.52919763       0.00000000
Si       0.00431685       2.69845481      -2.68636440       0.00000000
Si      -0.06814107      -2.80075602       2.58953193       0.00000000
Si      -2.68954418       2.71062344       0.03060478       0.00000000
Si      -2.67861359       0.00721647       2.72475896       0.00000000
Si       2.72476316      -0.02694366      -2.69202439       0.00000000
