10
Lattice="16.290000149 0.0 0.0 0.0 16.290000149 0.0 0.0 0.0 29.1751946751" Properties=species:S:1:pos:R:3:initial_magmoms:R:1 pbc="T T T"
H        1.98581618      -0.10230120      -1.06915418       0.00000000
Si       1.02506455      -1.34560288       1.61440940       0.00000000
Si       0.75582343       1.87025492      -1.28729711       0.00000000
Si      -0.76225798      -2.04330359      -1.01357544       0.00000000
Si      -1.07867494       1.11477358       1.86009371       0.00000000
H       -1.22289031       1.25279875      -2.37159322       0.00000000
H       -3.02541141       0.04385268      -1.29179009       0.00000000
H       -1.87618448       1.67223368      -2.41345963       0.00000000
H        2.32068971      -0.80699032       2.55020377       0.00000000
Si      -1.02400570       3.42112809      -0.65702538       0.00000000
