10
Lattice="16.290000149 0.0 0.0 0.0 16.290000149 0.0 0.0 0.0 29.1751946751" Properties=species:S:1:pos:R:3:initial_magmoms:R:1 pbc="T T T"
Si       1.34625285      -1.36093340       1.35477934       0.00000000
Si      -1.31429138      -1.38429326      -1.36251077       0.00000000
Si      -1.37986238       1.34817507       1.34042514       0.00000000
Si       1.32347943       1.38464838      -1.36175221       0.00000000
Si      -2.63210727       0.05083783      -2.63656234       0.00000000
Si       2.67771602      -0.01053800      -2.65234612       0.00000000
Si      -0.00886991       2.71690976       2.66465806       0.00000000
Si       2.66434193      -2.73092241      -0.03407663       0.00000000
Si       2.70314471       0.00165995       2.70445302       0.00000000
Si      -0.02901249      -2.70920784       2.70564920       0.00000000
