10
Lattice="16.290000149 0.0 0.0 0.0 16.290000149 0.0 0.0 0.0 29.1751946751" Properties=species:S:1:pos:R:3:initial_magmoms:R:1 pbc="T T T"
Si      -1.23782824       1.36650295       1.41689333       0.00000000
Si       1.32216157      -1.37484343       1.33464846       0.00000000
Si       1.34857739       1.41134932      -1.30509398       0.00000000
Si      -1.38870622      -1.35739684      -1.33068063       0.00000000
H       -1.88379191       0.53916643       2.49339966       0.00000000
Si       2.61146621       0.03424158       2.65263787       0.00000000
Si      -2.81628039       2.45258984       0.09449846       0.00000000
Si      -0.09037692       2.76113874      -2.59189512       0.00000000
Si       2.68728802       0.04838130      -2.67737844       0.00000000
Si      -0.00513135      -2.70127298      -2.66579589       0.00000000
