10
Lattice="16.290000149 0.0 0.0 0.0 16.290000149 0.0 0.0 0.0 29.1751946751" Properties=species:S:1:pos:R:3:initial_magmoms:R:1 pbc="T T T"
Si      -1.33944526      -1.28756161      -1.43069320       0.00000000
Si       1.35055504       1.38424276      -1.35504192       0.00000000
Si      -1.12487338       1.11619081       1.75334167       0.00000000
Si       1.34296390      -1.41504715       1.36936694       0.00000000
Si       0.73796959       1.95276377       3.00825432       0.00000000
Si       2.41409657       0.27272718       2.75556796       0.00000000
Si      -2.78402619      -0.40785273       2.48666019       0.00000000
Si       0.05196510      -2.64119546      -2.74430634       0.00000000
Si       2.73619874       0.03378546      -2.70897518       0.00000000
Si      -0.05155785      -3.23566644       2.11776903       0.00000000
