10
Lattice="16.290000149 0.0 0.0 0.0 16.290000149 0.0 0.0 0.0 29.1751946751" Properties=species:S:1:pos:R:3:initial_magmoms:R:1 pbc="T T T"
Si       1.35125551       1.38559483       1.32294920       0.00000000
Si      -1.33917974       1.35961228      -1.36218984       0.00000000
Si       1.38787543      -1.35027811      -1.33438588       0.00000000
Si      -1.35010055      -1.36567216       1.36402788       0.00000000
Si       2.66159054      -0.04124628       2.62037011       0.00000000
Si      -2.66703140       2.70822881       0.03308467       0.00000000
Si       0.03963357      -2.71199180      -2.68449719       0.00000000
Si      -2.69133608       0.00470781      -2.72076195       0.00000000
Si      -2.69280218      -2.72728811       0.01111575       0.00000000
Si       0.01888011       2.71223615      -2.72493401       0.00000000
