10
Lattice="10.86 0.0 0.0 0.0 10.86 0.0 0.0 0.0 10.86" Properties=species:S:1:pos:R:3:initial_magmoms:R:1 pbc="T T T"
Si      -1.04189754      -1.38814692      -1.36311462       0.00000000
Si      -1.21830738       1.21068366       1.44478182       0.00000000
Si       1.82587008       1.14323220      -1.15726332       0.00000000
Si      -2.41796814       2.46328692       0.21167226       0.00000000
Si      -2.41796814      -0.25171308      -2.50332774       0.00000000
Si       0.29703186       2.46328692      -2.50332774       0.00000000
Si      -2.41796814      -0.25171308       2.92667226       0.00000000
Si      -2.41796814      -2.96671308       0.21167226       0.00000000
Si       0.29703186       2.46328692       2.92667226       0.00000000
Si       0.29703186      -2.96671308      -2.50332774       0.00000000
