10
Lattice="10.86 0.0 0.0 0.0 10.86 0.0 0.0 0.0 10.86" Properties=species:S:1:pos:R:3:initial_magmoms:R:1 pbc="T T T"
Si      -1.25143038      -1.27793964       1.36591650       0.00000000
Si      -1.25143038       1.43706036      -1.34908350       0.00000000
Si       1.46356962       1.43706036       1.36591650       0.00000000
Si       1.65788760      -1.29323052      -1.36479792       0.00000000
Si       2.75369418       0.39201342      -2.31450492       0.00000000
Si      -2.60893038      -2.63543964       0.00841650       0.00000000
Si      -2.60893038       0.07956036      -2.70658350       0.00000000
Si      -2.60893038       0.07956036       2.72341650       0.00000000
Si       0.10606962      -2.63543964       2.72341650       0.00000000
Si      -2.60893038       2.79456036       0.00841650       0.00000000
