10
Lattice="10.86 0.0 0.0 0.0 10.86 0.0 0.0 0.0 10.86" Properties=species:S:1:pos:R:3:initial_magmoms:R:1 pbc="T T T"
Si       1.26534204       1.30723992       1.34327340       0.00000000
Si      -1.44965796       1.30723992      -1.37172660       0.00000000
Si      -1.44965796      -1.40776008       1.34327340       0.00000000
Si       1.33258716      -1.43725584      -1.45796586       0.00000000
Si       2.55546660      -2.45280702       0.37785198       0.00000000
Si       2.62284204       2.66473992      -0.01422660       0.00000000
Si      -0.09215796       2.66473992       2.70077340       0.00000000
Si      -0.09215796       2.66473992      -2.72922660       0.00000000
Si      -0.07871328      -2.73732816      -2.68423362       0.00000000
Si       2.64014202      -0.00466980      -2.78909778       0.00000000
