10
Lattice="16.290000149 0.0 0.0 0.0 16.290000149 0.0 0.0 0.0 29.1751946751" Properties=species:S:1:pos:R:3:initial_magmoms:R:1 pbc="T T T"
Si       1.22258080      -1.53358948       1.24131701       0.00000000
Si      -1.38693061      -1.35250984      -1.29281123       0.00000000
Si      -1.05831244       1.46479681       1.47918237       0.00000000
Si       1.37583712       1.31929453      -1.35664655       0.00000000
Si       0.75712663       2.21975687       2.86275763       0.00000000
Si      -2.37298061       0.10699272       2.86418721       0.00000000
Si      -0.01933623       2.60229494      -2.71641485       0.00000000
Si      -0.02594997      -2.70006752      -2.62655525       0.00000000
Si      -2.50494590       2.81711118       0.19594061       0.00000000
Si      -2.74176993       0.00565263      -2.59638810       0.00000000
