10
Lattice="16.290000149 0.0 0.0 0.0 16.290000149 0.0 0.0 0.0 29.1751946751" Properties=species:S:1:pos:R:3:initial_magmoms:R:1 pbc="T T T"
Si       1.32621778       1.38284182      -1.37592552       0.00000000
Si       1.34926813      -1.36186030       1.37654404       0.00000000
Si      -1.36130644       1.34879572       1.39101493       0.00000000
Si      -1.38634417      -1.37948608      -1.34383281       0.00000000
Si       2.52356537      -0.09023031      -2.80676459       0.00000000
Si      -2.64122804      -2.75327067       0.07937987       0.00000000
Si      -2.83960767       0.03764619      -2.55845451       0.00000000
Si       2.71823087       0.04383639       2.69267208       0.00000000
Si      -0.07126875       2.80792362      -2.60064184       0.00000000
Si       2.63337626       2.83204911      -0.00654691       0.00000000
