10
Lattice="16.290000149 0.0 0.0 0.0 16.290000149 0.0 0.0 0.0 29.1751946751" Properties=species:S:1:pos:R:3:initial_magmoms:R:1 pbc="T T T"
Si       1.08276373      -1.42021108      -1.49785449       0.00000000
Si      -1.54541602       1.32429556      -1.18500888       0.00000000
Si      -1.05565717      -1.76241512       1.18156621       0.00000000
Si       2.12708306       0.96992290       0.68004461       0.00000000
Si       0.21913308       0.80759305       3.38747350       0.00000000
Si       2.37786761      -2.71397918      -0.07109995       0.00000000
Si      -0.20158875       2.70267392      -2.49830110       0.00000000
Si       2.49776201      -0.09368379      -2.73648738       0.00000000
Si      -1.40217805      -0.87926905       3.31622768       0.00000000
Si       0.54608967      -3.53919801       1.09240681       0.00000000
