10
Lattice="16.290000149 0.0 0.0 0.0 16.290000149 0.0 0.0 0.0 29.1751946751" Properties=species:S:1:pos:R:3:initial_magmoms:R:1 pbc="T T T"
Si       1.34527708       1.35381956      -1.36548664       0.00000000
Si      -1.35694072      -1.36217959      -1.35025718       0.00000000
Si       1.38992797      -1.34872405       1.33222691       0.00000000
Si      -1.38429163       1.35507389       1.33394825       0.00000000
Si       0.02611287      -2.69869265       2.68178389       0.00000000
Si      -0.02857266       2.72297778       2.67122247       0.00000000
Si      -2.70353404      -0.00311302      -2.70640776       0.00000000
Si       2.70469388      -0.00224150      -2.70684539       0.00000000
Si       2.71803539       2.70207771      -0.02307758       0.00000000
Si       2.71049312      -2.71648133      -0.05152339       0.00000000
