10
Lattice="16.290000149 0.0 0.0 0.0 16.290000149 0.0 0.0 0.0 29.1751946751" Properties=species:S:1:pos:R:3:initial_magmoms:R:1 pbc="T T T"
Si      -1.34408791       1.28041030       1.45905149       0.00000000
Si      -1.36896274      -1.40569669      -1.31612804       0.00000000
Si       1.33998283      -1.33652935       1.42194064       0.00000000
Si       1.33602436       1.42298038      -1.35869173       0.00000000
Si       2.65668725      -0.02060685      -2.67458346       0.00000000
Si      -2.67646331      -2.69710274       0.15337400       0.00000000
Si      -2.77495266       2.60022611       0.17356323       0.00000000
Si       0.06066396      -2.77902516      -2.60107655       0.00000000
Si      -2.71823087      -0.04383639      -2.69267208       0.00000000
Si       2.69413796       2.75209779       0.02345686       0.00000000
