10
Lattice="16.290000149 0.0 0.0 0.0 16.290000149 0.0 0.0 0.0 29.1751946751" Properties=species:S:1:pos:R:3:initial_magmoms:R:1 pbc="T T T"
H       -0.14753853       0.79278544       1.27801940       0.00000000
Si       1.08100441       1.17190261      -1.70199333       0.00000000
Si      -2.21151413       0.08457768      -0.80234703       0.00000000
Si       0.86209939      -2.07640487       0.79388622       0.00000000
H       -1.45008694      -1.87642883       1.71124187       0.00000000
H       -1.55579275       2.83333602       0.82918821       0.00000000
Si      -2.73326654      -1.91182700       0.89433642       0.00000000
Si       1.95699917      -0.60828490      -2.98576025       0.00000000
Si       0.71946415      -1.66105874       3.15188381       0.00000000
Si      -2.75214666       2.46743003      -0.06196811       0.00000000
