10
Lattice="16.290000149 0.0 0.0 0.0 16.290000149 0.0 0.0 0.0 29.1751946751" Properties=species:S:1:pos:R:3:initial_magmoms:R:1 pbc="T T T"
H       -0.18046062       1.38730528       0.61040342       0.00000000
Si       0.83088775      -1.24452343       1.71432860       0.00000000
Si       1.89472250       0.01702142      -1.33943319       0.00000000
Si      -1.89843662      -0.55086265      -1.28653856       0.00000000
Si       0.64182601       1.12138732      -2.94430230       0.00000000
Si      -2.62977617       1.63791064      -0.88537963       0.00000000
Si      -0.69129874       2.66756897      -1.78660140       0.00000000
Si       1.87307309       0.60727166       2.66605846       0.00000000
Si       2.32709168      -2.27190116      -1.03723652       0.00000000
Si      -1.00173727      -2.26667207       2.65607180       0.00000000
