10
Lattice="16.290000149 0.0 0.0 0.0 16.290000149 0.0 0.0 0.0 29.1751946751" Properties=species:S:1:pos:R:3:initial_magmoms:R:1 pbc="T T T"
Si       1.54140868      -1.27443187      -1.18900588       0.00000000
Si       1.38170152       1.32576166       1.37201604       0.00000000
Si      -1.21432177      -1.43265664       1.44552295       0.00000000
Si      -1.46965123       1.21230181      -1.45283717       0.00000000
H        0.35961804      -1.81035659      -2.24313484       0.00000000
Si       2.81076889       2.53172666      -0.04107867       0.00000000
Si      -2.66699882       2.68537394      -0.02199810       0.00000000
Si      -2.64394847      -0.05932818       2.73047146       0.00000000
Si      -0.14302620       2.54430254      -2.85365497       0.00000000
Si       0.06103863       2.76934890       2.68790777       0.00000000
