10
Lattice="16.290000149 0.0 0.0 0.0 16.290000149 0.0 0.0 0.0 29.1751946751" Properties=species:S:1:pos:R:3:initial_magmoms:R:1 pbc="T T T"
Si      -0.22405266       2.13571676       0.90979927       0.00000000
Si      -1.81543907      -0.75496006      -1.38357526       0.00000000
Si       0.34174791      -1.95097187       1.37132168       0.00000000
Si       2.12540519       0.58461553      -1.00213876       0.00000000
H        2.21027609      -0.24135264       1.57055908       0.00000000
H       -1.35770635       2.19810746       1.91059597       0.00000000
H        2.86176207      -0.66311704       1.61370919       0.00000000
H       -1.05161725      -1.11074995       2.99635084       0.00000000
Si       1.95190040      -2.73958707      -0.15200276       0.00000000
H        1.06376959      -1.87220972       2.69450428       0.00000000
