10
Lattice="16.290000149 0.0 0.0 0.0 16.290000149 0.0 0.0 0.0 29.1751946751" Properties=species:S:1:pos:R:3:initial_magmoms:R:1 pbc="T T T"
Si       1.39027006       1.43594722      -1.17698570       0.00000000
Si       1.69971491      -1.59855400       0.01668821       0.00000000
Si      -0.95956246       1.27044082       1.75433363       0.00000000
Si      -1.58762341      -0.81059041      -1.56819589       0.00000000
Si      -2.06843906       1.22016988      -2.62617597       0.00000000
Si      -0.17495460       2.71937117      -2.29932627       0.00000000
Si       0.62853337      -3.35774370      -1.04803134       0.00000000
Si      -2.41282595       2.68757309       0.53971193       0.00000000
Si      -0.29585898      -2.31539546      -2.88417222       0.00000000
Si       2.35092395      -2.02237094       2.14890188       0.00000000
