10
Lattice="16.290000149 0.0 0.0 0.0 16.290000149 0.0 0.0 0.0 29.1751946751" Properties=species:S:1:pos:R:3:initial_magmoms:R:1 pbc="T T T"
Si      -1.14759793      -0.12688281       2.05892266       0.00000000
Si      -1.52625898       0.99707833      -1.50561510       0.00000000
Si       0.99983134      -1.76612924      -1.26416119       0.00000000
Si       1.52705719       1.84552670       0.42531599       0.00000000
H       -2.05669397      -2.80368822      -0.90953669       0.00000000
H        0.70701859      -2.97834960       1.92226605       0.00000000
Si       2.29882853      -0.46871217      -2.76274506       0.00000000
Si      -2.55674810       2.62027259      -0.18876351       0.00000000
Si      -0.23574888       2.43629316      -2.78576429       0.00000000
Si       0.41212071       0.65689426       3.65127561       0.00000000
