10
Lattice="16.290000149 0.0 0.0 0.0 16.290000149 0.0 0.0 0.0 29.1751946751" Properties=species:S:1:pos:R:3:initial_magmoms:R:1 pbc="T T T"
Si      -0.53144985      -0.89036254      -2.09606269       0.00000000
Si       2.05760621       1.03270456       0.66814113       0.00000000
Si      -1.42235322       1.93170080       0.00866503       0.00000000
Si      -0.69250908      -1.74360017       1.51591394       0.00000000
H        1.43866765       1.59334120      -2.37489002       0.00000000
Si      -1.96028975      -0.31524408       2.83724625       0.00000000
H        2.84692188      -0.44720937      -1.92605883       0.00000000
Si       0.24231375       1.22743522      -3.26604634       0.00000000
Si       1.11071737       2.17018640       2.63107741       0.00000000
Si      -3.10155087       1.18065034       1.45785530       0.00000000
