10
Lattice="16.290000149 0.0 0.0 0.0 16.290000149 0.0 0.0 0.0 29.1751946751" Properties=species:S:1:pos:R:3:initial_magmoms:R:1 pbc="T T T"
Si       1.43208649      -1.22592025      -1.28560495       0.00000000
Si      -1.22258080       1.53358948      -1.24131701       0.00000000
Si       1.48644622       1.01375929       1.46943786       0.00000000
Si      -1.12039363      -1.44168130       1.55016562       0.00000000
H        2.07532973      -2.06819471      -0.20609358       0.00000000
Si      -1.99638839       0.33850620       2.83393253       0.00000000
Si      -0.12370626       1.80237449       2.99276229       0.00000000
Si       2.46510056      -0.84574423       2.36505798       0.00000000
Si      -0.00778662      -2.55596618      -2.49561698       0.00000000
Si       0.69910165      -2.32937228       2.69797613       0.00000000
