10
Lattice="16.290000149 0.0 0.0 0.0 16.290000149 0.0 0.0 0.0 29.1751946751" Properties=species:S:1:pos:R:3:initial_magmoms:R:1 pbc="T T T"
Si       0.84810628      -1.87520708      -1.11720573       0.00000000
Si       1.48315564       1.24820497       1.37981166       0.00000000
Si      -1.39650913       1.31176855      -1.42739640       0.00000000
Si      -1.31085631      -1.36278883       1.49006472       0.00000000
H        1.38895057      -1.61893279      -2.50186047       0.00000000
H        2.65448810       0.13458798      -2.07021346       0.00000000
Si      -0.00175932       2.54470621       2.71860299       0.00000000
Si      -2.80507287       2.49098537       0.04376279       0.00000000
H       -0.22349880      -0.78980437      -3.66300404       0.00000000
Si      -2.66804138      -2.67265145       0.12186479       0.00000000
