10
Lattice="16.290000149 0.0 0.0 0.0 16.290000149 0.0 0.0 0.0 29.1751946751" Properties=species:S:1:pos:R:3:initial_magmoms:R:1 pbc="T T T"
Si      -1.88690330      -1.34112313      -0.38794256       0.00000000
Si       0.52154064       1.25414431      -1.93183552       0.00000000
Si       1.93069082      -1.49301109       0.31585066       0.00000000
H       -0.90126055      -0.99004105       2.06939656       0.00000000
Si      -1.61549560       1.52886538       1.07708984       0.00000000
H       -2.79301827      -1.41434668       0.83029687       0.00000000
Si       0.19443744       2.85542526       1.68189162       0.00000000
Si      -2.77878081       0.07982100      -1.97907016       0.00000000
Si      -0.01723482      -1.84127501       2.95757701       0.00000000
Si       1.55202976      -0.36904995      -3.24868710       0.00000000
