10
Lattice="16.290000149 0.0 0.0 0.0 16.290000149 0.0 0.0 0.0 29.1751946751" Properties=species:S:1:pos:R:3:initial_magmoms:R:1 pbc="T T T"
Si       1.91816381      -1.06015484       0.77824832       0.00000000
Si      -1.25476984      -1.31912512      -1.46987548       0.00000000
Si       1.16196571       1.43996108      -1.50366036       0.00000000
Si      -0.97420717       0.40310257       2.15222494       0.00000000
H       -1.88022440       1.96881593       0.65787146       0.00000000
Si       0.04935870       2.55424596       2.54212224       0.00000000
Si      -2.60143157      -2.60935829      -0.09884556       0.00000000
Si       3.66525003      -0.73776759      -0.71397536       0.00000000
Si       2.68314221       0.12306769      -2.70071860       0.00000000
Si       2.60183882       2.77000701      -0.29364833       0.00000000
