10
Lattice="16.290000149 0.0 0.0 0.0 16.290000149 0.0 0.0 0.0 29.1751946751" Properties=species:S:1:pos:R:3:initial_magmoms:R:1 pbc="T T T"
H        1.31235499      -0.45947574       0.60611467       0.00000000
Si      -1.25949394       0.24838992       1.93726210       0.00000000
Si       0.26766099       2.03066255      -1.19600793       0.00000000
Si      -0.97169851      -1.99663274      -0.87697718       0.00000000
H        1.88460641      -0.58024981      -1.72480833       0.00000000
Si       3.07004601      -1.09328707      -0.92569975       0.00000000
H       -0.88682761      -2.82260091       1.69572066       0.00000000
Si      -1.92689525       2.75411775      -0.72984667       0.00000000
Si      -3.32115636      -0.44553150       1.03496086       0.00000000
H        1.07654095       0.16653267      -3.37851672       0.00000000
