10
Lattice="16.290000149 0.0 0.0 0.0 16.290000149 0.0 0.0 0.0 29.1751946751" Properties=species:S:1:pos:R:3:initial_magmoms:R:1 pbc="T T T"
Si      -1.33459589      -1.37652130      -1.34591008       0.00000000
Si       1.34335649      -1.35814618       1.36324015       0.00000000
Si       1.33079690       1.35891181      -1.38258330       0.00000000
Si      -1.38819960       1.36115983       1.32289085       0.00000000
Si      -2.67005972       0.03192840      -2.65310468       0.00000000
Si      -0.03613122       2.71410950       2.68382616       0.00000000
Si       2.69185899       2.71274114      -0.02987540       0.00000000
Si       2.69143545       0.00394218       2.71340981       0.00000000
Si       2.70248007      -2.71546157       0.01111575       0.00000000
Si       2.70785577      -0.00563634      -2.71548124       0.00000000
