10
Lattice="16.290000149 0.0 0.0 0.0 16.290000149 0.0 0.0 0.0 29.1751946751" Properties=species:S:1:pos:R:3:initial_magmoms:R:1 pbc="T T T"
Si      -1.45298656       1.18153000       1.35481493       0.00000000
Si      -1.35718507      -1.30986262      -1.36819993       0.00000000
Si       1.26565156      -1.51145137       1.33703119       0.00000000
Si       1.31085631       1.36278883      -1.49006472       0.00000000
Si       2.15896259      -0.51241824      -2.60727045       0.00000000
Si       0.36064431      -2.10437480      -2.72764730       0.00000000
H       -1.64263475      -2.96365602       1.11560109       0.00000000
Si      -0.02720430       2.54194049       2.63710792       0.00000000
Si      -2.81087862       2.42641181      -0.10036267       0.00000000
Si       2.68107338      -0.21128130       2.68052061       0.00000000
