10
Lattice="16.290000149 0.0 0.0 0.0 16.290000149 0.0 0.0 0.0 29.1751946751" Properties=species:S:1:pos:R:3:initial_magmoms:R:1 pbc="T T T"
Si       1.35488818       1.35467641      -1.33459011       0.00000000
Si       1.39497787      -1.45057564       1.19361556       0.00000000
Si      -1.37676565      -1.36586764      -1.33634062       0.00000000
Si      -1.30437289       1.34578207       1.43180185       0.00000000
Si      -0.02002041      -2.77710294       2.43224845       0.00000000
Si       2.66155796       2.66862457       0.11197440       0.00000000
Si      -0.01954800       2.70111823      -2.67133917       0.00000000
Si       2.70774011      -0.03028311      -2.67183515       0.00000000
Si      -2.70493823       2.68677977       0.07156675       0.00000000
Si      -2.64820016      -0.03259629       2.74509407       0.00000000
