10
Lattice="16.290000149 0.0 0.0 0.0 16.290000149 0.0 0.0 0.0 29.1751946751" Properties=species:S:1:pos:R:3:initial_magmoms:R:1 pbc="T T T"
H       -0.61302529       1.30571845      -0.44034121       0.00000000
Si      -0.84688453      -1.66243361      -1.39486606       0.00000000
Si       2.30764142       0.08580920      -0.35797964       0.00000000
Si      -0.75647503      -0.58268190       2.15318772       0.00000000
H        1.40162419       1.65152257      -1.85233311       0.00000000
Si       2.36297855      -1.98225518       0.93016356       0.00000000
Si      -2.22677786      -0.21148981      -2.55186675       0.00000000
Si      -2.12775421       2.77488098       0.19039732       0.00000000
Si       1.31176855      -1.30889663       2.99821806       0.00000000
Si       0.49544406       2.55125186      -2.66039848       0.00000000
