10
Lattice="16.290000149 0.0 0.0 0.0 16.290000149 0.0 0.0 0.0 29.1751946751" Properties=species:S:1:pos:R:3:initial_magmoms:R:1 pbc="T T T"
Si       1.36019872       1.35019666      -1.35346646       0.00000000
Si       1.37037997      -1.34247520       1.35685078       0.00000000
Si      -1.33855218       1.36296802       1.37283879       0.00000000
Si      -1.34827444      -1.37811772      -1.35148254       0.00000000
Si      -2.68796405      -0.04761567       2.67796194       0.00000000
Si       2.66924684      -2.70011639      -0.06088863       0.00000000
Si      -0.02887077       2.69979059      -2.68292173       0.00000000
Si      -2.69123834      -0.02006928      -2.72023680       0.00000000
Si       2.67846698      -0.01233153      -2.74442304       0.00000000
Si       2.72675055       0.03940551       2.70745807       0.00000000
