10
Lattice="16.290000149 0.0 0.0 0.0 16.290000149 0.0 0.0 0.0 29.1751946751" Properties=species:S:1:pos:R:3:initial_magmoms:R:1 pbc="T T T"
Si       0.18046062      -1.38730528      -0.61040342       0.00000000
Si      -0.69535495       1.82358407       1.92155126       0.00000000
Si      -0.51083811       1.28026369      -2.39700482       0.00000000
Si      -2.53531046       0.94421728       0.73372405       0.00000000
Si      -2.44931555       0.25060536      -1.49578306       0.00000000
Si       1.21155247       2.61563645       0.79992841       0.00000000
Si       2.05353371      -0.78003363       2.05565504       0.00000000
Si       1.01134837      -2.63182871       1.10392518       0.00000000
Si       2.91776709       0.94838752       0.67321878       0.00000000
Si       2.07518312      -1.37028386      -1.94983661       0.00000000
