10
Lattice="16.290000149 0.0 0.0 0.0 16.290000149 0.0 0.0 0.0 29.1751946751" Properties=species:S:1:pos:R:3:initial_magmoms:R:1 pbc="T T T"
Si       1.34649883      -1.34488612       1.36496148       0.00000000
Si      -1.35461125       1.32854725       1.40105120       0.00000000
Si      -1.42421842      -1.45771066      -1.22423201       0.00000000
Si       1.46142478       1.43485221      -1.21558157       0.00000000
Si      -0.99794170       0.92668924      -3.42094329       0.00000000
Si       0.04424364       2.77848433      -2.46921343       0.00000000
Si      -2.83056672      -0.09545940      -2.47920010       0.00000000
Si       2.69048900      -2.64761372      -0.05954657       0.00000000
Si      -0.08850357      -2.61149879      -2.78222242       0.00000000
Si      -0.00926901      -2.71547786       2.71148424       0.00000000
