10
Lattice="16.290000149 0.0 0.0 0.0 16.290000149 0.0 0.0 0.0 29.1751946751" Properties=species:S:1:pos:R:3:initial_magmoms:R:1 pbc="T T T"
Si       0.27409066      -0.82565866      -2.15146638       0.00000000
Si      -2.26897385       0.48159756      -0.11550460       0.00000000
Si       1.28519467       1.98594813       0.11868469       0.00000000
Si       1.03089148      -1.54194625       1.47842381       0.00000000
Si      -2.54688125       1.22013893       2.09130713       0.00000000
Si       3.35343825       1.25973340       0.96371503       0.00000000
Si       2.57166486      -0.23496696       2.67536535       0.00000000
Si       1.19478517       0.90619642      -3.42936908       0.00000000
Si       1.92547313      -2.48008736      -2.05399206       0.00000000
Si       2.38628465      -2.90383914       0.15874223       0.00000000
