10
Lattice="16.290000149 0.0 0.0 0.0 16.290000149 0.0 0.0 0.0 29.1751946751" Properties=species:S:1:pos:R:3:initial_magmoms:R:1 pbc="T T T"
Si       1.37751499      -1.35927019      -1.32591048       0.00000000
Si       1.33749046       1.32468652       1.40475061       0.00000000
Si      -1.35389449      -1.39577608       1.32110533       0.00000000
Si      -1.33076269       1.39395160      -1.36932317       0.00000000
Si      -0.03790683      -2.65944026      -2.66939990       0.00000000
Si       2.70168023       0.04474863      -2.66644649       0.00000000
Si      -2.65885382       2.70912476       0.05112369       0.00000000
Si      -2.70495452      -0.02743236       2.68128208       0.00000000
Si       2.68578119       2.72041784       0.09345107       0.00000000
Si      -2.75654496       0.03354111      -2.65161616       0.00000000
