10
Lattice="16.290000149 0.0 0.0 0.0 16.290000149 0.0 0.0 0.0 29.1751946751" Properties=species:S:1:pos:R:3:initial_magmoms:R:1 pbc="T T T"
Si      -1.36668214       1.35749458      -1.32817156       0.00000000
Si       1.34894233       1.36172998       1.34786482       0.00000000
Si      -1.37590228      -1.33029028       1.35536284       0.00000000
Si       1.37502262      -1.36445041      -1.33190599       0.00000000
Si       2.66851379      -0.07902279       2.62416289       0.00000000
Si       0.00210141       2.70216893      -2.67008464       0.00000000
Si       0.01021383      -2.71981100      -2.67904143       0.00000000
Si      -2.70716996      -0.00527796      -2.69304552       0.00000000
Si      -2.68495040       2.72002277       0.06278502       0.00000000
Si       2.73531909      -0.00128691      -2.67469432       0.00000000
