10
Lattice="16.290000149 0.0 0.0 0.0 16.290000149 0.0 0.0 0.0 29.1751946751" Properties=species:S:1:pos:R:3:initial_magmoms:R:1 pbc="T T T"
Si       1.25289649      -1.10436590       1.60486911       0.00000000
Si      -1.80993305      -1.32655987      -0.60480179       0.00000000
Si       1.21919248       1.32023935      -1.49619151       0.00000000
Si      -1.33312474       1.54618165       1.15770090       0.00000000
Si      -0.64182601      -1.12138732       2.94430230       0.00000000
H        3.08705277      -0.52372513      -0.77393039       0.00000000
Si      -0.19443744      -2.85542526      -1.68189162       0.00000000
Si       2.75299374       2.04191894       0.11445429       0.00000000
Si      -3.03122694       0.54379279      -1.55705096       0.00000000
Si      -2.54026262      -1.67224997       1.65776374       0.00000000
