10
Lattice="16.290000149 0.0 0.0 0.0 16.290000149 0.0 0.0 0.0 29.1751946751" Properties=species:S:1:pos:R:3:initial_magmoms:R:1 pbc="T T T"
Si      -1.34941188      -1.41058369       1.30512316       0.00000000
Si       1.33855218      -1.36296802      -1.37283879       0.00000000
Si      -1.43886027       1.34957764      -1.28668444       0.00000000
Si       1.37954108       1.35979147       1.35693830       0.00000000
Si      -2.58694690      -0.04437396       2.72300844       0.00000000
Si      -0.06020497       2.67656105      -2.67600721       0.00000000
Si       0.00033020       2.75530610       2.65505942       0.00000000
Si       2.70893215      -2.70544322      -0.01598801       0.00000000
Si       2.69875090      -0.01277136      -2.72630524       0.00000000
Si       2.71647442       2.71019990      -0.01312884       0.00000000
