10
Lattice="16.290000149 0.0 0.0 0.0 16.290000149 0.0 0.0 0.0 29.1751946751" Properties=species:S:1:pos:R:3:initial_magmoms:R:1 pbc="T T T"
Si      -1.37016820       1.36116635      -1.31387572       0.00000000
Si      -1.38676771      -1.35826021       1.30629017       0.00000000
Si       1.32445846      -1.35193969      -1.38386701       0.00000000
Si       1.35591445       1.37073835       1.33861628       0.00000000
Si      -0.00501732      -2.70511742       2.64201810       0.00000000
Si      -0.02717172       2.69420312      -2.66194476       0.00000000
Si       2.67274919       0.04379163      -2.69516656       0.00000000
Si       2.73839790       0.01135413       2.66077775       0.00000000
Si      -2.70572015       0.01080027       2.69520448       0.00000000
Si      -0.00350235       2.72679941       2.67997503       0.00000000
