10
Lattice="16.290000149 0.0 0.0 0.0 16.290000149 0.0 0.0 0.0 29.1751946751" Properties=species:S:1:pos:R:3:initial_magmoms:R:1 pbc="T T T"
Si       1.77129317       1.00698265       1.15209926       0.00000000
Si       1.34141798      -1.30145698      -1.42366197       0.00000000
Si      -1.23140998       1.49195224      -1.36102283       0.00000000
Si      -1.29899719      -1.29741706       1.49858387       0.00000000
H       -3.15292953      -0.79777018      -1.58278349       0.00000000
Si      -2.29882853       0.46871217       2.76274506       0.00000000
Si      -2.50665635       0.02886588      -2.65955240       0.00000000
Si       3.42267564      -0.64744606       1.24957359       0.00000000
Si       2.75805993      -2.52527582      -0.04598011       0.00000000
Si       2.69198768       2.73883773      -0.12580344       0.00000000
