10
Lattice="16.290000149 0.0 0.0 0.0 16.290000149 0.0 0.0 0.0 29.1751946751" Properties=species:S:1:pos:R:3:initial_magmoms:R:1 pbc="T T T"
Si       1.72493183       0.94003075       1.27606642       0.00000000
Si      -0.86423338      -1.72842114       1.38243626       0.00000000
Si       0.73150246      -0.63179137      -2.17976749       0.00000000
Si      -1.70621462       1.66724894       0.12670962       0.00000000
H       -2.91776709      -0.94838752      -0.67321878       0.00000000
Si       0.46643157       2.34206219       2.63900314       0.00000000
Si      -2.36257130      -0.49321233       2.66226452       0.00000000
Si      -0.84258397      -2.31867138      -2.62305539       0.00000000
Si       2.97725817      -1.13744926      -1.90126108       0.00000000
Si      -2.35742366       2.09106587      -2.00550405       0.00000000
