10
Lattice="16.290000149 0.0 0.0 0.0 16.290000149 0.0 0.0 0.0 29.1751946751" Properties=species:S:1:pos:R:3:initial_magmoms:R:1 pbc="T T T"
Si       0.06950943       1.07409745       1.06212296       0.00000000
H        1.15291173       1.80568136      -1.92824697       0.00000000
Si      -2.46022985      -1.39706299      -1.03332705       0.00000000
H       -1.21626028      -2.16947127       1.73592408       0.00000000
Si      -1.55031931       0.39617280       2.62430876       0.00000000
Si      -0.46530756      -2.28272587      -2.00850793       0.00000000
Si       2.26653686       1.26012925       1.71690186       0.00000000
Si      -0.37522386       3.20883681       0.17344653       0.00000000
Si      -3.08412057      -0.32550678       1.01366296       0.00000000
Si       2.29048479       0.84014047      -2.21839428       0.00000000
