10
Lattice="16.290000149 0.0 0.0 0.0 16.290000149 0.0 0.0 0.0 29.1751946751" Properties=species:S:1:pos:R:3:initial_magmoms:R:1 pbc="T T T"
Si      -1.37640727      -1.32015790       1.36350272       0.00000000
Si      -1.37355652       1.35218404      -1.34506400       0.00000000
Si       1.29093364      -1.36765954      -1.41234200       0.00000000
Si       1.40867776       1.32548473       1.35620892       0.00000000
Si       0.04313592      -2.69275331       2.61657733       0.00000000
Si       0.04395042       2.69501762       2.70042684       0.00000000
Si      -0.00974142       2.70215264      -2.69462098       0.00000000
Si       2.68011227      -0.00778662      -2.72522576       0.00000000
Si       2.61050510      -2.80841232      -0.13604393       0.00000000
Si      -2.73277785      -2.70203861       0.01289544       0.00000000
