10
Lattice="16.290000149 0.0 0.0 0.0 16.290000149 0.0 0.0 0.0 29.1751946751" Properties=species:S:1:pos:R:3:initial_magmoms:R:1 pbc="T T T"
H        1.19635390       0.36590598       0.89115632       0.00000000
Si       0.84729178       1.48291129      -1.63576564       0.00000000
Si      -0.77376360      -2.11779776       1.16998366       0.00000000
Si       0.54063252      -2.38285235      -0.74037892       0.00000000
Si      -2.19111905       1.41284800       1.04750619       0.00000000
H        2.60460812      -1.67464460       1.33998752       0.00000000
Si      -3.41552433      -0.16909020      -0.37347167       0.00000000
H       -1.88738874      -1.57224565      -2.47516517       0.00000000
Si      -0.24231375      -1.22743522       3.26604634       0.00000000
Si       1.27117387       3.29690055      -0.15153596       0.00000000
