10
Lattice="16.290000149 0.0 0.0 0.0 16.290000149 0.0 0.0 0.0 29.1751946751" Properties=species:S:1:pos:R:3:initial_magmoms:R:1 pbc="T T T"
Si       1.33899077      -1.35920503       1.36297757       0.00000000
Si      -1.35206838      -1.35294967      -1.36093531       0.00000000
Si      -1.32758451       1.34907265       1.39539121       0.00000000
Si       1.35866909       1.35208630      -1.36242324       0.00000000
Si       2.68993677       0.02707398       2.68598512       0.00000000
Si      -2.67054842       2.70712109       0.02663695       0.00000000
Si       0.03613122      -2.71410950      -2.68382616       0.00000000
Si      -2.69032448      -2.71028135       0.01957656       0.00000000
Si      -2.69840432       0.02782332      -2.71451846       0.00000000
Si       2.69915691       2.71485884       0.00245072       0.00000000
