10
Lattice="16.290000149 0.0 0.0 0.0 16.290000149 0.0 0.0 0.0 29.1751946751" Properties=species:S:1:pos:R:3:initial_magmoms:R:1 pbc="T T T"
Si       1.80993305       1.32655987       0.60480179       0.00000000
Si      -0.73032958      -0.34569009       2.26256552       0.00000000
Si      -1.22129389       1.87035266      -0.95224918       0.00000000
Si       1.61549560      -1.52886538      -1.07708984       0.00000000
H        0.71423506      -2.51890643       0.99230672       0.00000000
H       -1.17752266      -2.94321207      -0.24679297       0.00000000
Si      -0.27140769      -2.86998852      -1.46503240       0.00000000
Si       0.47680830       2.87274153       1.76250269       0.00000000
Si      -1.46166913       1.84308320       2.66372445       0.00000000
Si      -1.16328520      -1.44904438      -3.05615999       0.00000000
