10
Lattice="16.290000149 0.0 0.0 0.0 16.290000149 0.0 0.0 0.0 29.1751946751" Properties=species:S:1:pos:R:3:initial_magmoms:R:1 pbc="T T T"
Si       1.39991374       1.41675435       1.25800522       0.00000000
Si      -1.26112294       1.39158629      -1.43107247       0.00000000
Si       1.42987105      -1.28213704      -1.41196272       0.00000000
Si      -1.29730303      -1.59024610       1.27603549       0.00000000
Si      -2.52770303      -2.72761391      -0.34943131       0.00000000
Si       0.28178442      -2.67608864       2.59773016       0.00000000
Si      -2.58468545       2.78588325      -0.06614017       0.00000000
Si       2.86906152       0.12359142       2.52978113       0.00000000
Si      -2.56779272       0.07763814      -2.87763698       0.00000000
Si       2.86873132      -2.63171468      -0.12527829       0.00000000
