10
Lattice="16.290000149 0.0 0.0 0.0 16.290000149 0.0 0.0 0.0 29.1751946751" Properties=species:S:1:pos:R:3:initial_magmoms:R:1 pbc="T T T"
Si       1.36381510       1.34996860      -1.34955698       0.00000000
Si       1.37355652      -1.35218404       1.34506400       0.00000000
Si      -1.35167905       1.36142047       1.36081861       0.00000000
Si      -1.36940257      -1.36155079      -1.35235780       0.00000000
Si      -0.02611287       2.69869265      -2.68178389       0.00000000
Si      -0.00285075      -2.67234194       2.70856672       0.00000000
Si       2.66449016      -2.71984358      -0.06727800       0.00000000
Si       2.68438025      -0.01778868      -2.73330729       0.00000000
Si       2.72549621       2.69267675       0.02774561       0.00000000
Si      -2.68861240       0.01101204       2.73088575       0.00000000
