10
Lattice="16.290000149 0.0 0.0 0.0 16.290000149 0.0 0.0 0.0 29.1751946751" Properties=species:S:1:pos:R:3:initial_magmoms:R:1 pbc="T T T"
Si      -0.45159138      -1.28412442       0.66291877       0.00000000
H        0.51825006      -1.53828100      -1.81819813       0.00000000
Si       1.55189944      -0.43095195      -2.02942654       0.00000000
Si       2.71554628      -0.59235328      -0.00732297       0.00000000
Si      -1.27555588      -0.29447433       2.59901387       0.00000000
Si      -2.32896503      -1.98842258      -0.61524651       0.00000000
Si       1.56162457      -2.65357586       0.58726749       0.00000000
Si      -2.77384494       1.01677294       1.30453965       0.00000000
Si      -1.85461652       2.85146679       0.13665661       0.00000000
Si       0.29281275       1.21222036      -3.18642724       0.00000000
