10
Lattice="16.290000149 0.0 0.0 0.0 16.290000149 0.0 0.0 0.0 29.1751946751" Properties=species:S:1:pos:R:3:initial_magmoms:R:1 pbc="T T T"
Si       0.61302529      -1.30571845       0.44034121       0.00000000
Si      -1.51472892       1.46916253       0.63073853       0.00000000
H        2.01464948       0.34580412      -1.41199190       0.00000000
Si       1.10846935       1.24553341      -2.22005726       0.00000000
Si      -0.03554478       2.67265145      -0.75662950       0.00000000
Si      -2.83142406      -0.23162751      -0.50595623       0.00000000
Si      -1.61375257      -1.51720826      -2.11152554       0.00000000
Si      -0.22428072       1.62409672       2.65567210       0.00000000
Si      -0.23385924      -2.96815206      -0.95452484       0.00000000
Si       2.92066671      -1.21990924       0.08236157       0.00000000
