10
Lattice="16.290000149 0.0 0.0 0.0 16.290000149 0.0 0.0 0.0 29.1751946751" Properties=species:S:1:pos:R:3:initial_magmoms:R:1 pbc="T T T"
Si      -1.25007832       1.34122902       1.48946313       0.00000000
Si       1.35550720      -1.38638848       1.39973831       0.00000000
Si      -1.44780634      -1.44010932      -1.27510188       0.00000000
Si       1.52443450       1.36844961      -1.28656773       0.00000000
H       -0.64511659       1.15307952      -2.72720967       0.00000000
Si      -0.03924261      -2.61932614      -2.74626107       0.00000000
Si      -2.88199913       2.52590299       0.28154063       0.00000000
Si      -2.58733909      -0.06411255       2.84124676       0.00000000
Si       0.13422960       2.62434346       2.86088166       0.00000000
Si       3.72760815       0.98978855      -0.47856072       0.00000000
