10
Lattice="16.290000149 0.0 0.0 0.0 16.290000149 0.0 0.0 0.0 29.1751946751" Properties=species:S:1:pos:R:3:initial_magmoms:R:1 pbc="T T T"
Si      -1.36319608       1.38828268       1.31626808       0.00000000
Si      -1.36019872      -1.34539111      -1.36814158       0.00000000
Si       1.35395965       1.34526079      -1.37636898       0.00000000
Si       1.34754139      -1.32921514       1.41018303       0.00000000
Si       2.66988215      -2.72410668       0.04253743       0.00000000
Si       0.02619432       2.72868906       2.66562084       0.00000000
Si      -2.69509907      -2.70955156       0.00070020       0.00000000
Si      -0.06361245      -2.61772972       2.78914861       0.00000000
Si      -0.00990432      -2.69507301      -2.74138882       0.00000000
Si       2.73038321       2.70728399      -0.04583423       0.00000000
