10
Lattice="16.290000149 0.0 0.0 0.0 16.290000149 0.0 0.0 0.0 29.1751946751" Properties=species:S:1:pos:R:3:initial_magmoms:R:1 pbc="T T T"
Si      -1.35575155      -1.31455414       1.39909354       0.00000000
Si       1.34387614       1.36951660       1.36300383       0.00000000
Si      -1.37376829       1.35146728      -1.36076317       0.00000000
Si       1.42648273      -1.37591857      -1.29327219       0.00000000
Si      -2.67607235      -2.65554695       0.00435002       0.00000000
Si      -2.54679491      -0.11622915      -2.81015767       0.00000000
Si       2.68447799      -0.00713502      -2.71790570       0.00000000
Si       2.71120988       2.71955036       0.01229151       0.00000000
Si      -0.00309510      -2.68188788       2.75541917       0.00000000
Si       2.80235244      -2.64026693       0.12310765       0.00000000
