10
Lattice="16.290000149 0.0 0.0 0.0 16.290000149 0.0 0.0 0.0 29.1751946751" Properties=species:S:1:pos:R:3:initial_magmoms:R:1 pbc="T T T"
Si      -1.34296390       1.35778780      -1.36890013       0.00000000
Si       1.32775393      -1.34873056      -1.39547874       0.00000000
Si       1.34750555       1.37943721       1.35040306       0.00000000
Si      -1.34392501      -1.37202526       1.36318180       0.00000000
Si       2.66535353      -2.70816365      -0.03156756       0.00000000
Si      -2.68781744       2.72106533      -0.01735924       0.00000000
Si      -2.70933653      -2.71114472      -0.00945276       0.00000000
Si       2.71611317       0.03797199       2.70772064       0.00000000
Si      -2.72676683      -0.03101616       2.70138963       0.00000000
Si       2.70837542       2.72951985      -0.00210061       0.00000000
