10
Lattice="16.290000149 0.0 0.0 0.0 16.290000149 0.0 0.0 0.0 29.1751946751" Properties=species:S:1:pos:R:3:initial_magmoms:R:1 pbc="T T T"
Si       1.15460263       0.13422960      -2.05235824       0.00000000
Si      -0.91815328      -1.83555722       1.16709531       0.00000000
Si       1.56678850       0.77823847       1.58920203       0.00000000
Si      -1.93170080       1.48691863      -0.32288188       0.00000000
Si      -1.94426039      -0.34720506       2.63997584       0.00000000
H       -2.82594036       0.50246505       1.74771086       0.00000000
H        1.87615190      -2.82989883      -0.09525701       0.00000000
Si      -0.04434138       0.95131972       3.26899304       0.00000000
Si       2.40073877       2.70806429       0.57104609       0.00000000
Si       2.68091048       1.97304482      -1.63503626       0.00000000
