10
Lattice="16.290000149 0.0 0.0 0.0 16.290000149 0.0 0.0 0.0 29.1751946751" Properties=species:S:1:pos:R:3:initial_magmoms:R:1 pbc="T T T"
Si       1.35534430       1.36785502       1.33712835       0.00000000
Si      -1.32882744       1.36146934      -1.37289714       0.00000000
Si       1.38424276      -1.35471551      -1.33397743       0.00000000
Si      -1.34712763      -1.35395314       1.37604806       0.00000000
Si       2.70969491       0.00127062       2.67460680       0.00000000
Si      -2.69868287      -0.00794952      -2.69809283       0.00000000
Si       0.02722059      -2.71717202      -2.68414709       0.00000000
Si       0.05812272      -2.69184107       2.71008383       0.00000000
Si      -0.02329470       2.71251308       2.69348315       0.00000000
Si      -2.69470811       2.71249679      -0.02252325       0.00000000
