10
Lattice="16.290000149 0.0 0.0 0.0 16.290000149 0.0 0.0 0.0 29.1751946751" Properties=species:S:1:pos:R:3:initial_magmoms:R:1 pbc="T T T"
Si       1.35568639       1.34029234      -1.31553287       0.00000000
Si       1.43329195      -1.31965291       1.28297919       0.00000000
Si      -1.33604065       1.44130663       1.28922268       0.00000000
Si      -1.30427515      -1.29513646      -1.47596143       0.00000000
Si      -0.05051529       2.70453098      -2.56950608       0.00000000
Si       0.05320314      -2.63749763       2.64662778       0.00000000
Si      -2.67160889      -2.64517022      -0.12524911       0.00000000
Si      -2.69980688       0.07967439       2.61885300       0.00000000
Si       2.77964418      -2.59895549      -0.17791034       0.00000000
Si       2.76853440       0.08477316       2.62171217       0.00000000
