10
Lattice="16.290000149 0.0 0.0 0.0 16.290000149 0.0 0.0 0.0 29.1751946751" Properties=species:S:1:pos:R:3:initial_magmoms:R:1 pbc="T T T"
Si      -0.93342190       0.81565986       1.99322013       0.00000000
Si      -1.86934756      -0.89857107      -1.11939387       0.00000000
Si       1.35822275       1.38768321      -1.33707000       0.00000000
Si       1.84001579      -1.17574379       0.93112634       0.00000000
H        2.63894256       1.42624164      -0.51500054       0.00000000
H       -2.91837470       0.21292333      -1.10334751       0.00000000
Si       0.52316150      -2.60279668       2.27724065       0.00000000
Si       1.96263062      -0.13435829      -3.09248311       0.00000000
Si       0.40110053       2.79246766       2.48044588       0.00000000
Si      -0.64779955      -1.01062314       3.56351663       0.00000000
