10
Lattice="16.290000149 0.0 0.0 0.0 16.290000149 0.0 0.0 0.0 29.1751946751" Properties=species:S:1:pos:R:3:initial_magmoms:R:1 pbc="T T T"
Si       1.41890788      -1.33063237      -1.30238069       0.00000000
Si       1.37344249       1.32659245       1.36379448       0.00000000
Si      -1.35149986      -1.37557648       1.34698956       0.00000000
Si      -1.35136954       1.31891986      -1.40808242       0.00000000
Si       0.10710675      -2.69086367      -2.64797860       0.00000000
Si       0.00412137       2.70562241       2.68648110       0.00000000
Si       2.75353131       2.64443717       0.00014588       0.00000000
Si      -2.72152145      -0.01234782       2.68362193       0.00000000
Si      -2.71433756       2.69247638      -0.05837956       0.00000000
Si       0.01596420       2.66895362      -2.75879474       0.00000000
