10
Lattice="16.290000149 0.0 0.0 0.0 16.290000149 0.0 0.0 0.0 29.1751946751" Properties=species:S:1:pos:R:3:initial_magmoms:R:1 pbc="T T T"
Si       0.65122534      -0.42440337       2.13251126       0.00000000
Si      -1.07481421      -1.76059064      -1.06057668       0.00000000
Si      -1.70740379       1.59241267      -0.00700205       0.00000000
Si       1.77508874       0.59357503      -1.45759273       0.00000000
Si      -0.32521356       3.03749859      -1.18039920       0.00000000
H        3.08772066       1.14865678      -0.55208221       0.00000000
H       -0.56280322      -3.04313493       1.33496938       0.00000000
Si      -2.01033263      -0.72301537      -2.89380003       0.00000000
Si       0.71074900       1.93038131      -3.05166701       0.00000000
Si      -1.25711560      -1.21454983       3.25554327       0.00000000
