10
Lattice="16.290000149 0.0 0.0 0.0 16.290000149 0.0 0.0 0.0 29.1751946751" Properties=species:S:1:pos:R:3:initial_magmoms:R:1 pbc="T T T"
Si      -1.32233099       0.27020223       1.90855371       0.00000000
Si       2.21073221      -0.08187354       0.80345569       0.00000000
Si      -1.27522682      -0.18423990      -2.04331393       0.00000000
Si      -0.51525270       2.37426752       0.74446344       0.00000000
Si      -0.52561314      -1.99208783       1.69070253       0.00000000
H        2.06967710       0.71416990       2.08153344       0.00000000
H        0.22118562      -1.61999164      -2.65669323       0.00000000
H       -2.46642331       0.77773348      -1.80025539       0.00000000
H        0.67403134       2.74354554       1.63914996       0.00000000
H        0.75510667      -1.95352940       2.51277199       0.00000000
