10
Lattice="16.290000149 0.0 0.0 0.0 16.290000149 0.0 0.0 0.0 29.1751946751" Properties=species:S:1:pos:R:3:initial_magmoms:R:1 pbc="T T T"
H       -0.60186664      -0.07928343      -1.40157635       0.00000000
Si      -1.71364286       0.44484732       1.52478320       0.00000000
Si       0.47931696      -2.02989692       1.05798008       0.00000000
H        1.50081400      -0.85499695      -1.69612912       0.00000000
Si       1.89055226       1.50281767       0.32553682       0.00000000
Si       0.78278338      -0.92284480      -3.02255017       0.00000000
Si      -2.55653633       2.29016225       0.39996274       0.00000000
Si      -0.33596496       1.47126394       3.15736874       0.00000000
Si       2.07256043      -1.21961602       2.62308340       0.00000000
H       -2.29291526      -2.76504834      -0.20448894       0.00000000
