10
Lattice="16.290000149 0.0 0.0 0.0 16.290000149 0.0 0.0 0.0 29.1751946751" Properties=species:S:1:pos:R:3:initial_magmoms:R:1 pbc="T T T"
Si      -1.40496218       1.25217973       1.37353899       0.00000000
Si       1.40289318      -1.21518514       1.41143757       0.00000000
Si       1.35500058       1.43075071      -1.29158587       0.00000000
Si      -1.38948065      -1.41376024      -1.28292084       0.00000000
H       -1.25541004      -1.48468690       3.03500798       0.00000000
Si       2.54461042      -2.64549602      -0.05058979       0.00000000
Si      -0.06421355      -2.44666028       2.79194943       0.00000000
Si      -0.03535256       2.68402187       2.58398864       0.00000000
Si       2.54397511       0.02068830      -2.75623899       0.00000000
Si      -0.03846558       2.66895362      -2.71294300       0.00000000
