10
Lattice="16.290000149 0.0 0.0 0.0 16.290000149 0.0 0.0 0.0 29.1751946751" Properties=species:S:1:pos:R:3:initial_magmoms:R:1 pbc="T T T"
Si       1.44577009      -1.19327509      -1.35696690       0.00000000
Si      -1.34570877      -1.46219041       1.23320397       0.00000000
Si      -1.35783993       1.24185187      -1.45689194       0.00000000
Si       1.42679224       1.35936793       1.27945249       0.00000000
Si      -2.70541064      -0.00368154       2.52089203       0.00000000
Si       0.08724924      -2.53922006      -2.69756709       0.00000000
Si       0.09702324       2.67374288       2.69911746       0.00000000
Si      -2.52880098       2.83402541      -0.17061595       0.00000000
Si       2.75571417      -0.03624525       2.64889236       0.00000000
Si       0.03986163      -2.80171713       2.60570432       0.00000000
