10
Lattice="16.290000149 0.0 0.0 0.0 16.290000149 0.0 0.0 0.0 29.1751946751" Properties=species:S:1:pos:R:3:initial_magmoms:R:1 pbc="T T T"
Si      -1.25599159       1.10405476      -1.60323530       0.00000000
Si      -1.89664472      -0.01778542       1.33779938       0.00000000
Si       0.43616475      -2.28936404       0.30350955       0.00000000
Si       1.57214791       1.69210748       0.43640256       0.00000000
H        1.83221777       0.57887493      -2.37839105       0.00000000
H       -2.07581843       1.36977724       1.94826115       0.00000000
Si      -1.06275961      -1.26226324       3.05117395       0.00000000
Si       2.04729464      -2.46244529      -1.37628146       0.00000000
Si       0.84315412       2.31910958       2.61995845       0.00000000
Si      -2.58782942       2.65232153      -0.44728491       0.00000000
