10
Lattice="16.290000149 0.0 0.0 0.0 16.290000149 0.0 0.0 0.0 29.1751946751" Properties=species:S:1:pos:R:3:initial_magmoms:R:1 pbc="T T T"
Si       1.24885657      -1.37055916       1.41413044       0.00000000
Si      -1.28770822       1.44831133       1.32930064       0.00000000
Si       1.90834094       0.79014646      -1.12303202       0.00000000
Si      -1.83967859      -0.88195690      -1.18496220       0.00000000
H        0.69431239      -1.82858510      -1.92057389       0.00000000
Si       1.25711560       1.21454983      -3.25554327       0.00000000
Si       2.66848121       0.05831820       2.65027468       0.00000000
Si      -2.71515206       0.05782950       2.61091735       0.00000000
Si       2.74681983      -2.60670465       0.13432843       0.00000000
Si      -3.47276739       0.85341682      -1.26897276       0.00000000
