10
Lattice="16.290000149 0.0 0.0 0.0 16.290000149 0.0 0.0 0.0 29.1751946751" Properties=species:S:1:pos:R:3:initial_magmoms:R:1 pbc="T T T"
Si       1.38219022       1.44508591      -1.17339715       0.00000000
Si       1.70740379      -1.59241267       0.00700205       0.00000000
Si      -0.95529448       1.27448074       1.75083261       0.00000000
Si      -1.59324346      -0.81028090      -1.56510332       0.00000000
Si      -2.07256043       1.21961602      -2.62308340       0.00000000
Si      -0.18200817       2.72243369      -2.29754658       0.00000000
Si       0.63258958      -3.35300331      -1.05357463       0.00000000
Si      -2.40852539       2.69087996       0.53428534       0.00000000
Si      -0.30292884      -2.31542804      -2.88679799       0.00000000
Si       2.35862912      -2.01681605       2.13951330       0.00000000
