10
Lattice="16.290000149 0.0 0.0 0.0 16.290000149 0.0 0.0 0.0 29.1751946751" Properties=species:S:1:pos:R:3:initial_magmoms:R:1 pbc="T T T"
Si      -1.27895072       1.37322258      -1.38741471       0.00000000
Si       1.30134295       1.32713002       1.42575967       0.00000000
Si      -1.41188201      -1.39053070       1.25671859       0.00000000
Si       1.32976900      -1.31437495      -1.41966497       0.00000000
Si       2.64751598       2.65720853       0.07891307       0.00000000
Si      -0.04624731      -2.73849563       2.62888635       0.00000000
Si       2.65869092      -2.70998813      -0.05022510       0.00000000
Si      -0.09702324      -2.67374288      -2.69911746       0.00000000
Si      -2.71105114       2.68055210      -0.03526406       0.00000000
Si      -2.69343570      -0.04526991       2.71320266       0.00000000
