10
Lattice="16.290000149 0.0 0.0 0.0 16.290000149 0.0 0.0 0.0 29.1751946751" Properties=species:S:1:pos:R:3:initial_magmoms:R:1 pbc="T T T"
Si      -1.43386210       1.34671712      -1.26197305       0.00000000
Si      -1.37968156      -1.34359921       1.33543619       0.00000000
Si       1.34693866       1.38755615       1.33952071       0.00000000
Si       1.35404110      -1.32916627      -1.40122625       0.00000000
Si      -0.10039527       2.68695407      -2.59109864       0.00000000
Si      -0.01044189      -2.69159672       2.67729091       0.00000000
Si       2.70027929      -2.67395465      -0.03559374       0.00000000
Si       2.70687674       0.03489318       2.69298717       0.00000000
Si      -2.73033434       0.03323160       2.68405956       0.00000000
Si      -0.06814107      -2.78892948      -2.62631601       0.00000000
