10
Lattice="16.290000149 0.0 0.0 0.0 16.290000149 0.0 0.0 0.0 29.1751946751" Properties=species:S:1:pos:R:3:initial_magmoms:R:1 pbc="T T T"
Si       1.91604611      -1.06254947       0.77926945       0.00000000
Si      -1.25382502      -1.32138291      -1.46929198       0.00000000
Si       1.16175394       1.43799651      -1.50675293       0.00000000
Si      -0.97401169       0.39988367       2.15353782       0.00000000
H       -1.87597271       1.95942312       0.65413704       0.00000000
Si       0.04548168       2.54861614       2.54571079       0.00000000
Si      -2.59937903      -2.61350572      -0.09904979       0.00000000
Si       2.60257187       2.75859424      -0.28685051       0.00000000
H        3.21048210       1.88220852       0.78618397       0.00000000
Si       3.66389796      -0.74758883      -0.71298341       0.00000000
