10
Lattice="16.290000149 0.0 0.0 0.0 16.290000149 0.0 0.0 0.0 29.1751946751" Properties=species:S:1:pos:R:3:initial_magmoms:R:1 pbc="T T T"
Si       1.42337134       1.39188277       1.17616880       0.00000000
Si      -1.31830084       1.44308224      -1.27358477       0.00000000
Si       1.44015004      -1.32330187      -1.27486848       0.00000000
Si      -1.37997478      -1.33607323       1.34404287       0.00000000
Si       0.06353100      -2.66062943      -2.60986704       0.00000000
Si      -2.66615174       0.07993503      -2.62013671       0.00000000
Si       2.72134226       0.08933436       2.58865667       0.00000000
Si       0.01676241      -2.62003475       2.70276086       0.00000000
Si      -2.56538180       0.11720655       2.75422590       0.00000000
Si       0.07424982       2.80209180      -2.58375524       0.00000000
