10
Lattice="16.290000149 0.0 0.0 0.0 16.290000149 0.0 0.0 0.0 29.1751946751" Properties=species:S:1:pos:R:3:initial_magmoms:R:1 pbc="T T T"
Si       1.34594497       1.01358010      -1.64224253       0.00000000
Si       1.43840701      -1.62116127       0.93185572       0.00000000
Si      -1.83638801      -1.18467886      -1.00018402       0.00000000
Si      -0.11583819       1.71593975       1.81860658       0.00000000
H       -2.28980387       1.44511849       0.49898335       0.00000000
Si       2.77283496       2.27740718      -0.24367123       0.00000000
Si       0.62916868       0.40159737       3.60730860       0.00000000
Si       2.62689284      -0.47249797       2.62635102       0.00000000
Si      -2.89771410       2.32150421      -0.57405113       0.00000000
Si       0.15213231      -3.06493095       2.20934997       0.00000000
