10
Lattice="16.290000149 0.0 0.0 0.0 16.290000149 0.0 0.0 0.0 29.1751946751" Properties=species:S:1:pos:R:3:initial_magmoms:R:1 pbc="T T T"
Si      -1.36453186      -1.34697776       1.35063646       0.00000000
Si      -1.36270738       1.36624231      -1.33537784       0.00000000
Si       1.36036162       1.34317567       1.36289004       0.00000000
Si       1.36278883      -1.36247281      -1.34541410       0.00000000
Si       0.01014867      -2.69234606       2.68785234       0.00000000
Si       2.71235018       0.02581965      -2.68070441       0.00000000
Si       0.00780291       2.72463284      -2.67343979       0.00000000
Si      -0.00066789       2.69335604       2.71565630       0.00000000
Si      -2.74830222       0.01604565      -2.66039848       0.00000000
Si      -2.71448417      -2.71679735      -0.00087526       0.00000000
