10
Lattice="16.290000149 0.0 0.0 0.0 16.290000149 0.0 0.0 0.0 29.1751946751" Properties=species:S:1:pos:R:3:initial_magmoms:R:1 pbc="T T T"
H        1.29585322      -0.45600597       0.65425374       0.00000000
Si      -1.26682444       0.23993541       1.93697035       0.00000000
Si       0.28391841       2.02165418      -1.20347678       0.00000000
Si      -0.98816770      -1.98781985      -0.90235960       0.00000000
H        1.98703793      -0.20564496      -1.71045414       0.00000000
Si       3.10085040      -0.95475691      -0.98550890       0.00000000
H       -0.85283038      -2.81382060       1.69755870       0.00000000
Si      -1.91174555       2.74752030      -0.74282963       0.00000000
Si       2.14542560      -2.66185118       0.45705860       0.00000000
Si      -3.31931559      -0.45416520       1.02609160       0.00000000
