10
Lattice="16.290000149 0.0 0.0 0.0 16.290000149 0.0 0.0 0.0 29.1751946751" Properties=species:S:1:pos:R:3:initial_magmoms:R:1 pbc="T T T"
Si       1.48211308      -1.23645988      -1.31693911       0.00000000
Si      -1.32463765       1.47592288      -1.32954280       0.00000000
Si      -1.40656006      -1.79792732       0.74533870       0.00000000
Si       1.38914605       1.45461556       1.32802569       0.00000000
H        0.29628252       2.72807004       1.15428740       0.00000000
H        2.91672127       0.07051941       1.57283475       0.00000000
Si      -2.54526365       2.57958668       0.35797964       0.00000000
Si       0.05522310      -2.50028696      -2.71551042       0.00000000
Si       2.77195416      -2.57751785       0.19226453       0.00000000
Si      -3.16201935      -0.80998768       1.99791733       0.00000000
