10
Lattice="16.290000149 0.0 0.0 0.0 16.290000149 0.0 0.0 0.0 29.1751946751" Properties=species:S:1:pos:R:3:initial_magmoms:R:1 pbc="T T T"
Si       1.11381247      -0.74911195       0.72494524       0.00000000
H        0.51241824       1.30069135      -1.15116566       0.00000000
H       -0.87452866       0.39315915      -1.77758626       0.00000000
H       -0.69118471      -0.25036101       2.36470788       0.00000000
Si      -1.98703793       0.20564496       1.71045414       0.00000000
Si      -1.70311952       2.22729914       0.50697736       0.00000000
Si      -1.74327437      -0.57655198      -2.51175086       0.00000000
Si       2.41455269      -1.97060132      -0.82236121       0.00000000
Si       2.43983477       0.80420473       1.98049974       0.00000000
Si       0.15838767      -2.45620622       2.16751274       0.00000000
