10
Lattice="16.290000149 0.0 0.0 0.0 16.290000149 0.0 0.0 0.0 29.1751946751" Properties=species:S:1:pos:R:3:initial_magmoms:R:1 pbc="T T T"
Si      -1.26498041       1.42894252       1.32366720       0.00000000
Si       1.63372737      -1.18369657       1.21252284       0.00000000
Si       0.68356424       1.76169836      -1.50651953       0.00000000
Si      -1.33452242      -1.97680781      -0.48722575       0.00000000
Si       0.29797342      -2.59015075       2.56538946       0.00000000
Si       0.16040437       0.85750561      -3.59966469       0.00000000
Si      -2.58419350       0.10220346       2.69071734       0.00000000
Si      -0.40110053      -2.79246766      -2.48044588       0.00000000
Si       0.24273729       2.81233821       2.49283950       0.00000000
Si      -2.40933663       2.92509759      -0.06517738       0.00000000
