10
Lattice="16.290000149 0.0 0.0 0.0 16.290000149 0.0 0.0 0.0 29.1751946751" Properties=species:S:1:pos:R:3:initial_magmoms:R:1 pbc="T T T"
Si       1.44503704      -0.38553543      -0.23841969       0.00000000
Si      -1.31295772       1.86238685       0.02147294       0.00000000
Si      -2.10730700      -0.02819799       1.27918641       0.00000000
Si       0.58246525       2.55301769       1.27886548       0.00000000
H        0.24252552       0.80951527      -2.80405714       0.00000000
H        1.51446502       2.30402504      -1.09491588       0.00000000
Si       1.33538905      -0.46393920      -2.63031885       0.00000000
Si      -0.91448803       1.80297722      -2.36234469       0.00000000
Si       2.60923448       1.19773855       1.20557739       0.00000000
Si       1.81110593      -2.53094474       0.65973868       0.00000000
