10
Lattice="16.290000149 0.0 0.0 0.0 16.290000149 0.0 0.0 0.0 29.1751946751" Properties=species:S:1:pos:R:3:initial_magmoms:R:1 pbc="T T T"
Si       0.60186664       0.07928343       1.40157635       0.00000000
H        2.10268064      -0.77571352      -0.29455277       0.00000000
Si       1.38465001      -0.84356137      -1.62097382       0.00000000
Si      -0.47506527      -2.31445064      -1.78803098       0.00000000
Si      -1.11177622       0.52413075       2.92635955       0.00000000
H       -3.08669439      -0.65638927       0.75470394       0.00000000
Si       1.08118360      -1.95061349       2.45955644       0.00000000
Si       1.04376547       1.10372896      -2.99976434       0.00000000
H       -1.69104863      -2.68576490       1.19708741       0.00000000
Si       2.49241889       1.58210110       1.72711317       0.00000000
