10
Lattice="16.290000149 0.0 0.0 0.0 16.290000149 0.0 0.0 0.0 29.1751946751" Properties=species:S:1:pos:R:3:initial_magmoms:R:1 pbc="T T T"
Si       1.36021501       1.35431803       1.35367068       0.00000000
Si      -1.33077410      -1.35770635       1.38357526       0.00000000
Si       1.37873674      -1.35933535      -1.33599051       0.00000000
Si      -1.36948076       1.34887717      -1.36379448       0.00000000
Si      -2.66589811      -2.73460232       0.03821950       0.00000000
Si      -0.00910611       2.70790301       2.70500735       0.00000000
Si       2.71539641       2.69829191      -0.02237737       0.00000000
Si      -0.02386485       2.67786425      -2.74531872       0.00000000
Si      -2.71925714       0.00327429       2.70658281       0.00000000
Si       2.70821252      -0.00653229       2.71962412       0.00000000
