10
Lattice="16.290000149 0.0 0.0 0.0 16.290000149 0.0 0.0 0.0 29.1751946751" Properties=species:S:1:pos:R:3:initial_magmoms:R:1 pbc="T T T"
Si       2.23163228      -0.50725431       0.32492414       0.00000000
Si      -1.04912488       0.67089877       2.07129295       0.00000000
Si      -0.05452263       2.06625620      -1.28814320       0.00000000
Si      -0.64710397      -1.77114656      -1.58695554       0.00000000
Si      -2.36020925       1.98162639      -0.92567058       0.00000000
H       -0.65516752      -2.91074610       1.53910822       0.00000000
Si       2.79259473      -1.54176706      -1.68510089       0.00000000
Si      -3.11756394       1.39598622       1.22716704       0.00000000
Si       3.47710053       1.27855161      -0.51680940       0.00000000
Si       1.17206551      -3.23022558      -1.75485878       0.00000000
