10
Lattice="16.290000149 0.0 0.0 0.0 16.290000149 0.0 0.0 0.0 29.1751946751" Properties=species:S:1:pos:R:3:initial_magmoms:R:1 pbc="T T T"
H       -0.61496380       1.30849752      -0.43914503       0.00000000
Si      -0.84090610      -1.65825360      -1.40105120       0.00000000
Si       2.30568662       0.08462981      -0.36247262       0.00000000
Si      -0.75735469      -0.58564017       2.15283762       0.00000000
H        1.40372560       1.64416926      -1.86187340       0.00000000
Si       2.36020925      -1.98162639       0.92567058       0.00000000
Si      -2.22549584      -0.21996224      -2.56417868       0.00000000
Si      -2.11137624       2.74424926       0.17423426       0.00000000
Si       1.31108437      -1.31072762       2.99696352       0.00000000
Si       0.49744773       2.54541352      -2.66830495       0.00000000
