10
Lattice="16.290000149 0.0 0.0 0.0 16.290000149 0.0 0.0 0.0 29.1751946751" Properties=species:S:1:pos:R:3:initial_magmoms:R:1 pbc="T T T"
Si       1.35189571       1.35259129       1.36134376       0.00000000
Si       1.38848305      -1.36098064      -1.32300755       0.00000000
Si      -1.33793029      -1.35729910       1.38103702       0.00000000
Si      -1.34543998       1.38074041      -1.35463346       0.00000000
Si      -2.68947902       2.71147052       0.03229694       0.00000000
Si       0.05335904      -2.73787661      -2.66836330       0.00000000
Si      -2.70169652       0.03121164      -2.70935445       0.00000000
Si       2.71015103       2.70462872      -0.00157546       0.00000000
Si       2.68949531      -0.00684180       2.72525493       0.00000000
Si      -2.69705387      -2.72222192       0.04983123       0.00000000
