10
Lattice="16.290000149 0.0 0.0 0.0 16.290000149 0.0 0.0 0.0 29.1751946751" Properties=species:S:1:pos:R:3:initial_magmoms:R:1 pbc="T T T"
Si       1.35990550       1.36340785      -1.34275916       0.00000000
Si      -1.35267274       1.38619756       1.33704082       0.00000000
Si       1.38629530      -1.34495128       1.34634771       0.00000000
Si      -1.35741313      -1.36308205      -1.35845541       0.00000000
Si      -2.70746318       0.03078810       2.67049309       0.00000000
Si       0.04965192      -2.79127524       2.60514066       0.00000000
Si       2.69153156       2.71846871       0.04104950       0.00000000
Si      -0.00003258       2.71607082      -2.69622562       0.00000000
Si       2.71067231       0.00276930      -2.70343189       0.00000000
Si      -2.72665280      -0.01508454      -2.70031014       0.00000000
