10
Lattice="16.290000149 0.0 0.0 0.0 16.290000149 0.0 0.0 0.0 29.1751946751" Properties=species:S:1:pos:R:3:initial_magmoms:R:1 pbc="T T T"
Si      -1.18769251       0.13926321      -2.00772020       0.00000000
Si       0.21985147       1.84823084       1.44040854       0.00000000
Si       2.30633333      -0.18322992      -0.59412366       0.00000000
Si      -1.14954133      -2.04291263       0.61206641       0.00000000
H       -2.70715856       0.60727492       0.06331017       0.00000000
H       -2.24431079      -0.93662614      -1.68842687       0.00000000
Si      -3.17631057      -0.68763349       0.68535450       0.00000000
Si       1.65502655       0.65994049       2.88557263       0.00000000
Si       1.88904869      -2.00194328      -2.07193480       0.00000000
Si       0.32424594      -0.91997776      -3.43004011       0.00000000
