10
Lattice="16.290000149 0.0 0.0 0.0 16.290000149 0.0 0.0 0.0 29.1751946751" Properties=species:S:1:pos:R:3:initial_magmoms:R:1 pbc="T T T"
Si      -1.36733374      -1.35003376       1.35071232       0.00000000
Si       1.30427515       1.29513646       1.47596143       0.00000000
Si      -1.37179720       1.41206608      -1.30361480       0.00000000
Si       1.36374994      -1.34754139      -1.39075819       0.00000000
Si       2.65996154       2.63542880       0.16042856       0.00000000
Si       2.71208954      -2.71028135      -0.01426959       0.00000000
Si      -0.01596420      -2.66895362       2.75879474       0.00000000
Si      -2.71120988      -2.71955036      -0.01229151       0.00000000
Si      -2.73030176       0.02352276       2.70041517       0.00000000
Si      -2.78565519       0.11627802      -2.64634770       0.00000000
