10
Lattice="16.290000149 0.0 0.0 0.0 16.290000149 0.0 0.0 0.0 29.1751946751" Properties=species:S:1:pos:R:3:initial_magmoms:R:1 pbc="T T T"
Si      -1.41385798      -1.29578806      -1.34273290       0.00000000
Si      -1.38191329       1.35650089       1.32427667       0.00000000
Si       1.32090724       1.40362786      -1.34240964       0.00000000
Si       1.37179720      -1.41206608       1.30361480       0.00000000
Si       2.62555706       2.58760136       0.21007015       0.00000000
Si       2.66217698       0.04847904      -2.68557959       0.00000000
Si      -0.10816560      -2.72235224      -2.64312968       0.00000000
Si      -2.73517247      -0.04132773       2.64455343       0.00000000
Si      -2.69185736       0.19947105      -2.68158259       0.00000000
Si      -0.04471605       2.68120370       2.72919067       0.00000000
