10
Lattice="16.290000149 0.0 0.0 0.0 16.290000149 0.0 0.0 0.0 29.1751946751" Properties=species:S:1:pos:R:3:initial_magmoms:R:1 pbc="T T T"
Si       1.36733374       1.35003376      -1.35071232       0.00000000
Si      -1.34387614      -1.36951660      -1.36300383       0.00000000
Si       1.35136954      -1.31891986       1.40808242       0.00000000
Si      -1.36296802       1.37355652       1.34970286       0.00000000
Si       2.67160889       2.64517022       0.12524911       0.00000000
Si      -2.69962769      -2.68407074       0.03608972       0.00000000
Si       0.08260659      -2.74543518      -2.65627602       0.00000000
Si      -0.00446346       2.76209985      -2.65432712       0.00000000
Si       2.77027743      -2.64955223       0.10570173       0.00000000
Si      -2.71764443      -0.01804932      -2.72376700       0.00000000
