10
Lattice="16.290000149 0.0 0.0 0.0 16.290000149 0.0 0.0 0.0 29.1751946751" Properties=species:S:1:pos:R:3:initial_magmoms:R:1 pbc="T T T"
Si       1.38191329      -1.35650089      -1.32427667       0.00000000
Si       1.33719724       1.32470281       1.40491399       0.00000000
Si      -1.35325918      -1.39782862       1.32027675       0.00000000
Si      -1.32892192       1.39561318      -1.36943988       0.00000000
Si      -0.03194469      -2.65228895      -2.66700958       0.00000000
Si      -2.65869092       2.70998813       0.05022510       0.00000000
Si       2.70282053       0.04712697      -2.66668631       0.00000000
Si      -2.70493823      -0.02850750       2.67911145       0.00000000
Si      -2.75571417       0.03624525      -2.64889236       0.00000000
Si       2.68706810       2.71987361       0.09427964       0.00000000
