10
Lattice="16.290000149 0.0 0.0 0.0 16.290000149 0.0 0.0 0.0 29.1751946751" Properties=species:S:1:pos:R:3:initial_magmoms:R:1 pbc="T T T"
H       -1.04902714       1.11149440       0.01604636       0.00000000
Si      -0.83395027      -1.92982582       1.01815594       0.00000000
Si       0.28017171      -0.73501947      -2.20608235       0.00000000
Si       1.86934756       0.89857107       1.11939387       0.00000000
Si       2.54758498      -1.22293755      -2.08932322       0.00000000
Si      -2.40073877      -2.70806429      -0.57104609       0.00000000
Si       0.93592567       1.71423092       3.11261399       0.00000000
H        0.17379801       3.31076497      -1.73414440       0.00000000
Si      -2.88124491       0.53261947       2.39443740       0.00000000
Si       0.93406861      -3.08898965       2.04725259       0.00000000
