10
Lattice="16.290000149 0.0 0.0 0.0 16.290000149 0.0 0.0 0.0 29.1751946751" Properties=species:S:1:pos:R:3:initial_magmoms:R:1 pbc="T T T"
H       -0.60848038       0.47338740      -0.08078611       0.00000000
Si       1.99130591       0.68476645       1.06253141       0.00000000
H       -1.79294258      -1.17916795       1.04569733       0.00000000
Si       0.70524298      -0.51658848      -2.55930643       0.00000000
Si       0.20530287       2.21405537       1.67731112       0.00000000
Si       2.38977560       0.62535682      -1.32128622       0.00000000
Si      -2.51097320      -1.24701580      -0.28072372       0.00000000
Si       1.19695663      -1.20581839       2.32024488       0.00000000
Si      -0.91113229      -2.05148117      -1.79940931       0.00000000
Si      -0.74381770       1.29938815      -2.68070441       0.00000000
