10
Lattice="16.290000149 0.0 0.0 0.0 16.290000149 0.0 0.0 0.0 29.1751946751" Properties=species:S:1:pos:R:3:initial_magmoms:R:1 pbc="T T T"
Si      -1.34787371       1.33452568      -1.37628146       0.00000000
Si       1.31654152       1.46367280       1.27921559       0.00000000
Si      -1.40640205      -1.30170296       1.38334186       0.00000000
Si       1.41897304      -1.35483280      -1.33441505       0.00000000
H        2.22281939       0.56242855       2.08564714       0.00000000
H        0.20412999       0.22675680       3.50837551       0.00000000
Si      -0.02181231      -2.73999432       2.54646934       0.00000000
Si      -2.64157349      -2.66101258      -0.05692080       0.00000000
Si      -2.61754955       2.69540858       0.04688454       0.00000000
Si       0.07464078      -2.70091460      -2.72236659       0.00000000
