10
Lattice="16.290000149 0.0 0.0 0.0 16.290000149 0.0 0.0 0.0 29.1751946751" Properties=species:S:1:pos:R:3:initial_magmoms:R:1 pbc="T T T"
Si       1.32787936       1.33200073      -1.39413668       0.00000000
Si      -1.19681002       1.47263230       1.43142258       0.00000000
Si       1.47199699      -1.21024927       1.45432510       0.00000000
Si      -1.57615525      -1.11796642      -1.45566716       0.00000000
H        1.83677897      -3.00680823      -0.82735017       0.00000000
Si      -0.17557362       2.64538199      -2.68694790       0.00000000
Si      -2.52315812       0.09057240       2.80800162       0.00000000
Si       2.92369665       2.45900810      -0.05697916       0.00000000
Si      -2.59652828       2.89865892       0.20956542       0.00000000
H        2.02571039       3.20235339       0.92319069       0.00000000
