10
Lattice="16.290000149 0.0 0.0 0.0 16.290000149 0.0 0.0 0.0 29.1751946751" Properties=species:S:1:pos:R:3:initial_magmoms:R:1 pbc="T T T"
Si      -1.43602867       1.44935389       1.10133442       0.00000000
Si      -1.36179514      -1.30508965      -1.38751391       0.00000000
Si       1.34851879       1.40053276      -1.33978329       0.00000000
Si       1.32335074      -1.30572496       1.46272756       0.00000000
H       -0.56728297       2.41906502       1.83549902       0.00000000
Si      -2.69008175      -2.63710667       0.00195474       0.00000000
Si       2.71355564      -2.64911240       0.09919566       0.00000000
Si       0.01410714      -2.65851173      -2.70950033       0.00000000
Si       2.73136061       0.05952366      -2.67799112       0.00000000
Si      -2.71722089       0.03671766      -2.76219073       0.00000000
