10
Lattice="16.290000149 0.0 0.0 0.0 16.290000149 0.0 0.0 0.0 29.1751946751" Properties=species:S:1:pos:R:3:initial_magmoms:R:1 pbc="T T T"
Si       1.34509789       1.34117200       1.31769767       0.00000000
Si      -1.31665555       1.42778593      -1.28963113       0.00000000
Si       1.44034552      -1.33615468      -1.27247612       0.00000000
Si      -1.36508572      -1.25871202       1.42716300       0.00000000
Si      -2.66691737       0.04061097      -2.61176343       0.00000000
Si       0.06817365      -2.69232977      -2.60047263       0.00000000
Si      -0.01961316      -2.61377939       2.74238077       0.00000000
Si      -2.68776857      -2.68512959       0.11462934       0.00000000
Si       2.72507267       2.67724523      -0.02634520       0.00000000
Si       0.05892093       2.75718027      -2.64648191       0.00000000
