10
Lattice="16.290000149 0.0 0.0 0.0 16.290000149 0.0 0.0 0.0 29.1751946751" Properties=species:S:1:pos:R:3:initial_magmoms:R:1 pbc="T T T"
Si       1.34699568       1.34755768      -1.36852086       0.00000000
Si       1.35084012      -1.35936793       1.35950572       0.00000000
Si      -1.33022515       1.34923555       1.39165679       0.00000000
Si      -1.36416534      -1.32993190      -1.37919898       0.00000000
Si       2.67772579       2.69325830       0.04612598       0.00000000
Si      -2.70475090      -2.68325624       0.00644772       0.00000000
Si      -2.69860957       2.70611111       0.05076484       0.00000000
Si       2.69051344       0.00395847       2.72411710       0.00000000
Si       2.69867473      -0.02176344      -2.72735555       0.00000000
Si      -2.67813304      -0.00488700       2.74900354       0.00000000
