10
Lattice="16.290000149 0.0 0.0 0.0 16.290000149 0.0 0.0 0.0 29.1751946751" Properties=species:S:1:pos:R:3:initial_magmoms:R:1 pbc="T T T"
H        1.18928404       0.36927801       0.89468652       0.00000000
Si       0.83368963       1.49020921      -1.63763285       0.00000000
Si      -0.80707828      -2.10406529       1.16409027       0.00000000
Si       0.51525270      -2.37426752      -0.74446344       0.00000000
Si      -2.20490039       1.44923986       1.04636836       0.00000000
H        2.58492980      -1.66009763       1.33707000       0.00000000
Si      -3.36909783      -0.13403412      -0.39762873       0.00000000
Si      -0.28391841      -1.19987254       3.25723543       0.00000000
Si       1.25097427       3.30892257      -0.15982172       0.00000000
H       -1.95117061      -1.59653404      -2.54471883       0.00000000
