10
Lattice="16.290000149 0.0 0.0 0.0 16.290000149 0.0 0.0 0.0 29.1751946751" Properties=species:S:1:pos:R:3:initial_magmoms:R:1 pbc="T T T"
Si      -1.31680395       1.43537544      -1.27606466       0.00000000
Si       1.31405713       1.38399841       1.36396953       0.00000000
Si      -1.39841685      -1.33467229       1.33496938       0.00000000
Si       1.28155370      -1.34526079      -1.45648407       0.00000000
Si      -2.64168596       0.09892070      -2.61329512       0.00000000
Si       2.64718839      -2.69322572      -0.08431631       0.00000000
Si      -0.03003244      -2.69154785       2.67586133       0.00000000
Si       2.66004120       0.02295261       2.71930319       0.00000000
Si       2.69343570       0.04526991      -2.71320266       0.00000000
Si       2.63868501       2.76762216       0.00204226       0.00000000
