10
Lattice="16.290000149 0.0 0.0 0.0 16.290000149 0.0 0.0 0.0 29.1751946751" Properties=species:S:1:pos:R:3:initial_magmoms:R:1 pbc="T T T"
Si      -1.39255066      -1.35900955       1.31017047       0.00000000
Si      -1.36974466       1.34169328      -1.35323305       0.00000000
Si       1.35226549      -1.37091754      -1.34987791       0.00000000
Si       1.37683081       1.36624231       1.33669072       0.00000000
Si       2.77286754      -0.08236224       2.53121071       0.00000000
Si       0.00698841       2.69720048      -2.68548914       0.00000000
Si      -0.07424982      -2.80209180       2.58375524       0.00000000
Si      -2.69000030       2.70989039       0.03066313       0.00000000
Si      -2.68006340       0.00892692       2.72586761       0.00000000
Si       2.72688086      -0.02762784      -2.69225779       0.00000000
