10
Lattice="16.290000149 0.0 0.0 0.0 16.290000149 0.0 0.0 0.0 29.1751946751" Properties=species:S:1:pos:R:3:initial_magmoms:R:1 pbc="T T T"
Si       1.34598407      -1.36104580       1.35533367       0.00000000
Si      -1.31405713      -1.38399841      -1.36396953       0.00000000
Si      -1.37991940       1.34817670       1.34138793       0.00000000
Si       1.32462788       1.38362374      -1.36192726       0.00000000
Si      -2.63086109       0.05137703      -2.64003419       0.00000000
Si       2.68072152      -0.01159848      -2.65141252       0.00000000
Si      -0.01006396       2.71759556       2.66658362       0.00000000
Si       2.66386137      -2.73152352      -0.03363900       0.00000000
Si       2.70300624       0.00141071       2.70550333       0.00000000
Si      -0.02976509      -2.70904331       2.70599931       0.00000000
