10
Lattice="16.290000149 0.0 0.0 0.0 16.290000149 0.0 0.0 0.0 29.1751946751" Properties=species:S:1:pos:R:3:initial_magmoms:R:1 pbc="T T T"
Si      -1.31051087      -1.33551090       1.36907519       0.00000000
Si      -1.46617811       1.28991258      -1.27682322       0.00000000
Si       1.23517144       1.35930961       1.44026266       0.00000000
Si       1.38006448      -1.39294944      -1.29674988       0.00000000
Si       2.61976118      -0.07898174       2.60339015       0.00000000
Si      -0.08533996       2.63457390      -2.65217107       0.00000000
Si       2.64157349       2.66101258       0.05692080       0.00000000
Si      -2.61094158       0.07994676       2.70748724       0.00000000
Si       2.71621427      -0.03990203      -2.66544579       0.00000000
Si      -2.58650658      -2.79121789       0.06045100       0.00000000
