10
Lattice="10.86 0.0 0.0 0.0 10.86 0.0 0.0 0.0 10.86" Properties=species:S:1:pos:R:3:initial_magmoms:R:1 pbc="T T T"
Si       1.13011332       1.47870846      -1.36553640       0.00000000
Si       1.28460768      -1.55642262       1.29948588       0.00000000
Si      -1.60748634       1.28409726       1.41600282       0.00000000
Si      -0.13420788       2.46928164       2.66930112       0.00000000
Si       2.58079212      -0.24571836       2.66930112       0.00000000
Si      -2.84920788       2.46928164      -0.04569888       0.00000000
Si      -2.84920788      -0.24571836       2.66930112       0.00000000
Si       2.58079212      -2.96071836      -0.04569888       0.00000000
Si      -0.43721274       2.65520484      -2.90393142       0.00000000
Si      -2.84920788      -0.24571836      -2.76069888       0.00000000
