10
Lattice="16.28999089631971 0.0 0.0 0.0 16.28999089631971 0.0 0.0 0.0 34.64500226677339" Properties=species:S:1:pos:R:3:initial_magmoms:R:1 pbc="T T T"
Si      -1.35210470       1.35948817      -1.35978245       0.00000000
Si       1.35992522      -1.35512860      -1.35947065       0.00000000
Si      -1.33858400      -1.35763726       1.37963405       0.00000000
Si       1.36839113       1.34773493       1.36813190       0.00000000
Si       2.71289280      -2.71452910       0.00176690       0.00000000
Si      -2.71512158       2.71288254       0.00135116       0.00000000
Si      -2.71279211      -2.71599520       0.00000000       0.00000000
Si      -2.71297130       0.00050936      -2.71720905       0.00000000
Si       2.71729110       2.71291512       0.00107400       0.00000000
Si       0.00199575      -2.71465942      -2.71696653       0.00000000
