10
Lattice="16.28999089631971 0.0 0.0 0.0 16.28999089631971 0.0 0.0 0.0 34.64500226677339" Properties=species:S:1:pos:R:3:initial_magmoms:R:1 pbc="T T T"
Si      -1.56463821      -0.97570584       1.43627866       0.00000000
Si       1.32481683      -1.38551500      -1.39283380       0.00000000
Si      -1.37598372       1.35791811      -1.39428890       0.00000000
Si       1.77546339       0.97002063       1.26121737       0.00000000
Si      -2.58540219      -2.63376899       0.02872072       0.00000000
Si      -2.54169612       2.81303865       0.21289366       0.00000000
Si       2.74936104      -2.66066867       0.05997053       0.00000000
Si       0.25523172      -1.81105215       3.39067362       0.00000000
Si       2.68670970      -0.01474245      -2.76418770       0.00000000
Si      -3.37618395       0.94840380       1.60378734       0.00000000
