10
Lattice="16.28999089631971 0.0 0.0 0.0 16.28999089631971 0.0 0.0 0.0 34.64500226677339" Properties=species:S:1:pos:R:3:initial_magmoms:R:1 pbc="T T T"
Si      -0.38356434       2.22361758       0.65988373       0.00000000
Si      -2.17468242      -0.90391581       0.08865661       0.00000000
Si       1.51470936      -1.06518681       1.54655377       0.00000000
Si       0.51346080       0.45838431      -2.32159754       0.00000000
Si      -0.96904323       2.32813422      -1.69535413       0.00000000
Si      -1.42586370      -2.88348380      -1.05712354       0.00000000
Si      -0.23716611      -1.79842740      -2.90661338       0.00000000
Si       1.24963848       0.36352764       3.41180708       0.00000000
Si      -2.59511103      -1.08502803       2.42816563       0.00000000
Si       2.86785450       0.38592639      -2.61032915       0.00000000
