10
Lattice="16.28999089631971 0.0 0.0 0.0 16.28999089631971 0.0 0.0 0.0 34.64500226677339" Properties=species:S:1:pos:R:3:initial_magmoms:R:1 pbc="T T T"
Si       0.26507088      -1.42871445      -1.86525332       0.00000000
Si       1.34175843      -1.01322171       1.73363688       0.00000000
Si      -2.34660708      -0.38789748       0.62132382       0.00000000
Si       0.81744849       2.36014407       0.10698383       0.00000000
Si      -0.24045669      -0.31309380       3.43602396       0.00000000
Si      -1.24963848      -0.36352764      -3.41180708       0.00000000
Si      -1.63320282       1.86008994      -2.75192336       0.00000000
Si      -2.19338334      -1.43070183       2.79758550       0.00000000
Si       3.39283233       0.26959950       1.79682940       0.00000000
Si       2.30536080       2.43537129       1.98079447       0.00000000
