10
Lattice="16.28999089631971 0.0 0.0 0.0 16.28999089631971 0.0 0.0 0.0 34.64500226677339" Properties=species:S:1:pos:R:3:initial_magmoms:R:1 pbc="T T T"
Si       1.95292665       1.11760803       0.63843846       0.00000000
Si       0.37310616      -2.34211823      -0.28031287       0.00000000
Si      -0.15322374       1.04280435      -2.17626168       0.00000000
Si      -1.66288320       0.39996837       1.71191445       0.00000000
Si      -3.44103118       0.10223604       0.20402453       0.00000000
Si      -2.99885868      -1.89995876      -0.97619277       0.00000000
Si       3.53514177       0.41748012      -1.06394861       0.00000000
Si       1.17374337       3.35303586       1.10399826       0.00000000
Si      -1.45648890       2.97847989      -1.87769088       0.00000000
Si      -1.65858264      -3.43265228       0.10965149       0.00000000
