10
Lattice="16.28999089631971 0.0 0.0 0.0 16.28999089631971 0.0 0.0 0.0 34.64500226677339" Properties=species:S:1:pos:R:3:initial_magmoms:R:1 pbc="T T T"
Si       1.35749457       1.35552348      -1.35708014       0.00000000
Si      -1.36011726       1.35506736       1.35725337       0.00000000
Si      -1.35777150      -1.35993807      -1.35708014       0.00000000
Si       1.35658233      -1.35896067       1.36418237       0.00000000
Si      -2.71357191       2.71262709       0.00093542       0.00000000
Si       0.00016290       2.71244790      -2.71506105       0.00000000
Si      -2.71257822      -2.71570101      -0.00072755       0.00000000
Si       2.71419093      -0.00171045      -2.71426422       0.00000000
Si      -2.71484253      -0.00283446      -2.71457602       0.00000000
Si      -0.00068418      -2.71698141      -2.71433351       0.00000000
