10
Lattice="16.28999089631971 0.0 0.0 0.0 16.28999089631971 0.0 0.0 0.0 34.64500226677339" Properties=species:S:1:pos:R:3:initial_magmoms:R:1 pbc="T T T"
Si       1.35345465      -1.35755973       1.35631795       0.00000000
Si       1.35599589       1.35705474      -1.35801556       0.00000000
Si      -1.35816246       1.35527913       1.36064858       0.00000000
Si      -1.35941679      -1.35733167      -1.35763446       0.00000000
Si       2.71357191      -2.71262709      -0.00093542       0.00000000
Si      -2.71483276      -2.71407690      -0.00017323       0.00000000
Si       2.71373481      -0.00017919      -2.71599647       0.00000000
Si       2.71352304       2.71678104      -0.00065826       0.00000000
Si      -0.00127062      -2.71546155      -2.71551144       0.00000000
Si      -0.00239463       2.71555929      -2.71565002       0.00000000
