10
Lattice="16.28999089631971 0.0 0.0 0.0 16.28999089631971 0.0 0.0 0.0 34.64500226677339" Properties=species:S:1:pos:R:3:initial_magmoms:R:1 pbc="T T T"
Si       1.51987329       0.94218102      -1.49760035       0.00000000
Si      -1.22934114      -1.40906871      -1.39799591       0.00000000
Si       1.40089113      -1.03451274       1.58369323       0.00000000
Si      -0.95939955       1.99371681       0.87374745       0.00000000
Si      -0.04036662       1.78188165      -3.06203095       0.00000000
Si       0.08345367      -0.47658024       3.51640041       0.00000000
Si       2.28020904       2.80419318      -0.30643522       0.00000000
Si      -0.95237856      -0.34596702      -3.55353987       0.00000000
Si      -0.52843131       1.82925297       3.16884155       0.00000000
Si       0.07392402      -3.34474425      -1.69656671       0.00000000
