10
Lattice="16.28999089631971 0.0 0.0 0.0 16.28999089631971 0.0 0.0 0.0 34.64500226677339" Properties=species:S:1:pos:R:3:initial_magmoms:R:1 pbc="T T T"
Si      -1.35599589      -1.35705474       1.35801556       0.00000000
Si       1.35773892      -1.35723393      -1.35798091       0.00000000
Si      -1.35839052       1.35850455      -1.35763446       0.00000000
Si       1.35752715       1.35972630       1.35735730       0.00000000
Si       0.00071676      -2.71394658      -2.71492247       0.00000000
Si      -0.00254124      -2.71461447       2.71433351       0.00000000
Si       2.71507059      -2.71415835       0.00000000       0.00000000
Si      -2.71541268      -2.71438641       0.00038110       0.00000000
Si      -2.71544526       0.00203625      -2.71457602       0.00000000
Si      -0.00011403       2.71643895      -2.71419493       0.00000000
