10
Lattice="16.28999089631971 0.0 0.0 0.0 16.28999089631971 0.0 0.0 0.0 34.64500226677339" Properties=species:S:1:pos:R:3:initial_magmoms:R:1 pbc="T T T"
Si       0.83448783       1.86463485      -1.39089368       0.00000000
Si      -1.85851795      -0.80842383      -1.64782116       0.00000000
Si       1.81154574      -1.92410964      -0.16750868       0.00000000
Si       0.57801807       1.34861652       2.53871789       0.00000000
Si      -1.02495214       2.80986210      -0.05373443       0.00000000
Si      -1.21610877      -1.90915542       2.28040461       0.00000000
Si       2.00020023       0.40951431      -2.99807624       0.00000000
Si      -3.22387964      -1.20863655       1.40776581       0.00000000
Si       3.37618395      -0.94840380      -1.60378734       0.00000000
Si      -0.71513752      -2.33156815      -3.00424305       0.00000000
