10
Lattice="16.28999089631971 0.0 0.0 0.0 16.28999089631971 0.0 0.0 0.0 34.64500226677339" Properties=species:S:1:pos:R:3:initial_magmoms:R:1 pbc="T T T"
Si       1.35754344       1.35617508      -1.35739195       0.00000000
Si      -1.35891180       1.35661491       1.35836201       0.00000000
Si      -1.35752715      -1.35972630      -1.35735730       0.00000000
Si       1.35839052      -1.36189287       1.36220761       0.00000000
Si      -2.71345788       2.71389771      -0.00020787       0.00000000
Si      -0.00016290       2.71355562      -2.71506105       0.00000000
Si       2.71472850      -0.00151497      -2.71502641       0.00000000
Si      -2.71352304      -2.71678104       0.00065826       0.00000000
Si      -2.71591767      -0.00122175      -2.71499176       0.00000000
Si       2.71722087       2.71375110      -0.00034645       0.00000000
