10
Lattice="16.28999089631971 0.0 0.0 0.0 16.28999089631971 0.0 0.0 0.0 34.64500226677339" Properties=species:S:1:pos:R:3:initial_magmoms:R:1 pbc="T T T"
Si       1.49670891       1.38909717      -1.08695291       0.00000000
Si      -0.96875001      -1.66658103      -1.29128925       0.00000000
Si      -1.58791662       1.33814205       1.05747000       0.00000000
Si       0.97109577      -1.29060783       1.68558424       0.00000000
Si      -2.16261153      -0.04714326       2.89185460       0.00000000
Si      -2.93792593      -2.13078087      -0.12572678       0.00000000
Si       3.53945862       1.15101882       0.06423187       0.00000000
Si      -3.21881440       1.87960536      -0.55321171       0.00000000
Si       0.64720170      -3.39121962      -1.56737542       0.00000000
Si       1.53559314       0.04468347       3.54709589       0.00000000
