10
Lattice="16.28999089631971 0.0 0.0 0.0 16.28999089631971 0.0 0.0 0.0 34.64500226677339" Properties=species:S:1:pos:R:3:initial_magmoms:R:1 pbc="T T T"
Si      -1.33283151      -1.33393923      -1.38323367       0.00000000
Si       1.36099692      -1.35034326       1.35811949       0.00000000
Si      -1.35413883       1.36409202       1.35891633       0.00000000
Si       1.36469475       1.37478398      -1.39419535       0.00000000
Si       0.00216657      -2.70946683       2.71509570       0.00000000
Si      -2.71339272      -2.71344159      -0.00183619       0.00000000
Si      -2.71251306       0.00496845       2.71544215       0.00000000
Si       2.71852407      -2.70954828      -0.00516211       0.00000000
Si      -2.71018359       2.72070597       0.00006929       0.00000000
Si       2.71347417       2.71884565      -0.00304876       0.00000000
