10
Lattice="16.28999089631971 0.0 0.0 0.0 16.28999089631971 0.0 0.0 0.0 34.64500226677339" Properties=species:S:1:pos:R:3:initial_magmoms:R:1 pbc="T T T"
Si      -1.82464290       0.69401916       1.31997532       0.00000000
Si      -0.59582304      -1.75760955      -1.46655841       0.00000000
Si       1.73986974      -1.12220181       1.21364975       0.00000000
Si      -0.03872133       1.91619270      -1.51571970       0.00000000
Si      -2.27467044      -2.71759554      -0.13483842       0.00000000
Si      -2.66334984      -1.41156108       1.88496634       0.00000000
Si      -0.46877733       0.60650928      -3.66935818       0.00000000
Si       3.68986419      -0.86317452      -0.17703606       0.00000000
Si      -0.94874589       1.70272854       3.27017824       0.00000000
Si       1.78325001       3.45721597      -0.47442893       0.00000000
