10
Lattice="16.28999089631971 0.0 0.0 0.0 16.28999089631971 0.0 0.0 0.0 34.64500226677339" Properties=species:S:1:pos:R:3:initial_magmoms:R:1 pbc="T T T"
Si      -2.04274971       0.23807835      -1.15118478       0.00000000
Si       0.80725095      -2.24327961      -0.29330475       0.00000000
Si       0.89608032       2.07717048      -0.82493261       0.00000000
Si      -0.32081526       0.25143615       2.40637391       0.00000000
Si      -2.34569484       2.58835068      -0.65208860       0.00000000
Si      -3.53945862      -1.15101882      -0.06423187       0.00000000
Si       1.77650595      -0.31231188       3.27374667       0.00000000
Si      -0.57168126      -3.51992691       1.12398844       0.00000000
Si      -0.28149120       2.58605379       2.72711752       0.00000000
Si       2.67871131       1.47111732      -2.21710816       0.00000000
