10
Lattice="16.28999089631971 0.0 0.0 0.0 16.28999089631971 0.0 0.0 0.0 34.64500226677339" Properties=species:S:1:pos:R:3:initial_magmoms:R:1 pbc="T T T"
Si       1.28225106       1.92826359      -0.55698801       0.00000000
Si      -0.86196906      -0.07944633      -2.23155513       0.00000000
Si       1.59469326      -1.73691148       0.57888367       0.00000000
Si      -1.56535497       0.11134215       1.88420415       0.00000000
Si       2.10442365      -0.63817704       2.67469960       0.00000000
Si       1.12637205      -0.92672181      -3.24429841       0.00000000
Si       0.09945045      -3.59338571       0.56575320       0.00000000
Si      -0.36864270       3.63139938      -0.46559445       0.00000000
Si      -0.09179415      -0.60057972       3.65858357       0.00000000
Si       2.44367919       1.02275136      -2.61545662       0.00000000
