10
Lattice="16.28999089631971 0.0 0.0 0.0 16.28999089631971 0.0 0.0 0.0 34.64500226677339" Properties=species:S:1:pos:R:3:initial_magmoms:R:1 pbc="T T T"
Si       1.34772057      -1.35733167       1.35863917       0.00000000
Si       1.35474156       1.35594702      -1.35548647       0.00000000
Si      -1.35993807      -1.35866745      -1.35569434       0.00000000
Si      -1.35909099       1.35332433       1.36387057       0.00000000
Si       2.71197549      -0.00096111      -2.71298235       0.00000000
Si       2.71357191      -2.71324611       0.00194012       0.00000000
Si      -0.00275301       2.71370223      -2.71336345       0.00000000
Si      -0.00324171      -2.71590138      -2.71287842       0.00000000
Si      -2.71726974      -0.00174303      -2.71367525       0.00000000
Si       2.71445157       2.71655298       0.00194012       0.00000000
