10
Lattice="16.28999089631971 0.0 0.0 0.0 16.28999089631971 0.0 0.0 0.0 34.64500226677339" Properties=species:S:1:pos:R:3:initial_magmoms:R:1 pbc="T T T"
Si       1.64271618      -0.98937315       1.36962164       0.00000000
Si      -0.95540850      -1.81087785      -1.18662664       0.00000000
Si       1.88455752       1.07733915      -1.08428524       0.00000000
Si      -1.50584760       1.91026314       0.18656344       0.00000000
Si       0.39912129       2.20125141      -2.59965849       0.00000000
Si      -2.35113570      -0.52191531      -2.59605541       0.00000000
Si      -0.95461029      -0.21141162       3.51075327       0.00000000
Si       0.47586348      -2.05669395       3.09057844       0.00000000
Si       2.36723022       0.70491717       2.87789266       0.00000000
Si      -0.28557999       3.26552598       1.91735943       0.00000000
