10
Lattice="16.28999089631971 0.0 0.0 0.0 16.28999089631971 0.0 0.0 0.0 34.64500226677339" Properties=species:S:1:pos:R:3:initial_magmoms:R:1 pbc="T T T"
Si      -0.52069356       1.37777562      -1.84159077       0.00000000
Si       0.27261641       1.18682424       2.03529109       0.00000000
Si      -1.58700179      -1.78679471       0.04548891       0.00000000
Si       2.21414657      -0.80146800      -0.47065262       0.00000000
Si       2.40902384       2.19486573       1.43288345       0.00000000
Si       0.42448156      -0.68137812       3.51459886       0.00000000
Si       2.00420105      -2.99811653       0.24230728       0.00000000
Si       0.86665406      -2.68357292       2.33438156       0.00000000
Si      -0.98944287      -3.08885183      -1.93946296       0.00000000
Si       0.47762606       3.48995331      -1.45668458       0.00000000
