10
Lattice="16.28999089631971 0.0 0.0 0.0 16.28999089631971 0.0 0.0 0.0 34.64500226677339" Properties=species:S:1:pos:R:3:initial_magmoms:R:1 pbc="T T T"
Si      -1.39572720       1.28896254      -1.40942877       0.00000000
Si       0.95540850       1.81087785       1.18662664       0.00000000
Si      -0.93401973      -1.80442701       1.24268228       0.00000000
Si       1.34493498      -1.41547068      -1.41171534       0.00000000
Si       2.59812468       0.82150470       2.55624828       0.00000000
Si       2.81189835      -2.56645692       0.06114846       0.00000000
Si      -0.02101410       2.63728584      -2.78442039       0.00000000
Si      -2.58504381       2.84508108       0.02151456       0.00000000
Si       0.92258415      -3.47475474       1.39751088       0.00000000
Si       2.68579746      -0.07337016      -2.78965179       0.00000000
