10
Lattice="16.28999089631971 0.0 0.0 0.0 16.28999089631971 0.0 0.0 0.0 34.64500226677339" Properties=species:S:1:pos:R:3:initial_magmoms:R:1 pbc="T T T"
Si       1.28345652      -1.40587587       1.46981851       0.00000000
Si      -0.72128862      -1.80727776      -1.43697645       0.00000000
Si      -1.44930501       1.28633985       1.45302260       0.00000000
Si       0.99036684       1.85916141      -1.33200204       0.00000000
Si      -0.57909321      -0.44789355      -3.53999856       0.00000000
Si       2.74900266      -2.68928352       0.08614831       0.00000000
Si      -2.62283661       2.81706228      -0.04597741       0.00000000
Si       2.62428642      -0.06895557       2.84301551       0.00000000
Si      -0.08671167       2.64707613       2.84079823       0.00000000
Si       2.69884575       2.84524398      -0.02365216       0.00000000
