10
Lattice="16.28999089631971 0.0 0.0 0.0 16.28999089631971 0.0 0.0 0.0 34.64500226677339" Properties=species:S:1:pos:R:3:initial_magmoms:R:1 pbc="T T T"
Si       1.34082990       1.33692030       1.37319701       0.00000000
Si      -1.37660274      -1.37837835       1.37402849       0.00000000
Si       1.46554614      -1.28340765      -1.38367020       0.00000000
Si      -1.28345652       1.40587587      -1.46981851       0.00000000
Si      -2.00474514      -0.40140189      -2.90679496       0.00000000
Si      -0.10761174      -2.23607943      -2.92972996       0.00000000
Si       2.71257822       2.69972541      -0.03893061       0.00000000
Si      -2.73276153       2.69221572      -0.01679591       0.00000000
Si      -0.01203831       2.69723304       2.73509281       0.00000000
Si       2.70195714      -0.01800045       2.73557784       0.00000000
