10
Lattice="16.28999089631971 0.0 0.0 0.0 16.28999089631971 0.0 0.0 0.0 34.64500226677339" Properties=species:S:1:pos:R:3:initial_magmoms:R:1 pbc="T T T"
Si       1.35483930       1.35627282       1.35662976       0.00000000
Si      -1.35959598      -1.35927018       1.35617937       0.00000000
Si       1.35286821      -1.36031274      -1.36189580       0.00000000
Si      -1.35812988       1.35571896      -1.36411308       0.00000000
Si       2.71311579      -0.00172674       2.71381383       0.00000000
Si      -0.00216657       2.71331127       2.71395241       0.00000000
Si       2.71399545      -2.71523349       0.00048503       0.00000000
Si       2.71368594       2.71660185      -0.00058897       0.00000000
Si      -2.71511946      -2.71542897      -0.00090077       0.00000000
Si      -2.71565703       2.71492398      -0.00083148       0.00000000
