10
Lattice="16.28999089631971 0.0 0.0 0.0 16.28999089631971 0.0 0.0 0.0 34.64500226677339" Properties=species:S:1:pos:R:3:initial_magmoms:R:1 pbc="T T T"
Si      -1.94782788       0.61471944      -1.09388191       0.00000000
Si      -0.63226377       0.25961373       2.23706369       0.00000000
Si       1.58241060       1.68401133      -0.39266668       0.00000000
Si       0.71206848      -2.25637677      -0.01427375       0.00000000
Si      -3.32676009      -0.66192786       0.32341128       0.00000000
Si       1.47054717      -0.10549404       3.12175896       0.00000000
Si       2.22006636      -1.93039758       1.80770794       0.00000000
Si       0.84778047       3.31654626       1.20173187       0.00000000
Si      -0.97857288       2.54568717       2.47316951       0.00000000
Si      -2.48209101      -1.14056064       2.51917810       0.00000000
