10
Lattice="16.28999089631971 0.0 0.0 0.0 16.28999089631971 0.0 0.0 0.0 34.64500226677339" Properties=species:S:1:pos:R:3:initial_magmoms:R:1 pbc="T T T"
Si       2.10281094      -0.36510777       0.88469527       0.00000000
Si      -0.34630911       2.28607344       0.23610582       0.00000000
Si      -1.84982724      -1.40017437       0.28211441       0.00000000
Si       0.63226377      -0.25961373      -2.23706369       0.00000000
Si      -2.69449632      -0.92154159      -1.91365241       0.00000000
Si       1.48004424       3.05693253      -1.03533183       0.00000000
Si       2.90199834       1.97462493       0.55276132       0.00000000
Si      -1.31556411       0.35510571      -3.33094560       0.00000000
Si       2.85233013      -2.19001131      -0.42935575       0.00000000
Si       1.34433225      -2.51599050      -2.25133744       0.00000000
