10
Lattice="16.28999089631971 0.0 0.0 0.0 16.28999089631971 0.0 0.0 0.0 34.64500226677339" Properties=species:S:1:pos:R:3:initial_magmoms:R:1 pbc="T T T"
Si       0.34630911      -2.28607344      -0.23610582       0.00000000
Si      -2.09732121       0.56374803      -0.86737276       0.00000000
Si       1.82635335       0.77085909      -1.27143765       0.00000000
Si       0.65915856       0.43680006       2.25504446       0.00000000
Si       3.24830745      -0.31144851       0.31665550       0.00000000
Si      -2.05799715       2.89836567      -0.54662915       0.00000000
Si       2.44912005      -2.65118121       0.64858945       0.00000000
Si       0.97857288      -2.54568717      -2.47316951       0.00000000
Si      -1.77650595       0.31231188      -3.27374667       0.00000000
Si       2.93311224       1.20345633       2.06712986       0.00000000
