10
Lattice="16.28999089631971 0.0 0.0 0.0 16.28999089631971 0.0 0.0 0.0 34.64500226677339" Properties=species:S:1:pos:R:3:initial_magmoms:R:1 pbc="T T T"
Si      -0.12253827      -0.68612081       2.31723227       0.00000000
Si      -1.66571996       1.50876840      -0.95013972       0.00000000
Si       2.10597609      -0.42511850      -1.17827719       0.00000000
Si      -0.60513603      -2.47808597       0.68676826       0.00000000
Si      -0.90026359      -2.66463905      -1.75075152       0.00000000
Si       1.90694487       0.69896480       2.65030951       0.00000000
Si       1.93747233       2.64546831       1.13978657       0.00000000
Si       1.87314312       1.37861130      -2.72327193       0.00000000
Si       1.43982912      -2.55614765      -2.08961448       0.00000000
Si      -3.41208941       1.32729780       0.69030206       0.00000000
