10
Lattice="16.28999089631971 0.0 0.0 0.0 16.28999089631971 0.0 0.0 0.0 34.64500226677339" Properties=species:S:1:pos:R:3:initial_magmoms:R:1 pbc="T T T"
Si       1.34617302       1.34312679       1.36458425       0.00000000
Si      -1.36534635      -1.37003787       1.35963002       0.00000000
Si      -1.13448447       1.51927056      -1.41408506       0.00000000
Si       1.42021107      -1.17187002      -1.50482037       0.00000000
Si      -1.99291860      -0.27807030      -2.80405861       0.00000000
Si      -0.28826784      -2.15795259      -2.81317025       0.00000000
Si       0.69094035       2.46720195      -2.60589286       0.00000000
Si       2.49779457       0.63566838      -2.82373698       0.00000000
Si      -0.00676035       2.70239697       2.72273839       0.00000000
Si       2.71409319       2.71142163       0.01803620       0.00000000
