10
Lattice="16.28999089631971 0.0 0.0 0.0 16.28999089631971 0.0 0.0 0.0 34.64500226677339" Properties=species:S:1:pos:R:3:initial_magmoms:R:1 pbc="T T T"
Si       1.80294462       0.95843844      -1.17962834       0.00000000
Si       1.59599646      -0.95791716       1.48246048       0.00000000
Si      -0.94630239      -1.87574463      -1.27646118       0.00000000
Si      -1.78885377       1.72261863       0.23156732       0.00000000
Si      -0.35588763      -2.27478447       1.85326614       0.00000000
Si      -1.91589948      -0.64150020       2.43436709       0.00000000
Si       0.32430132       2.09691396      -2.66669660       0.00000000
Si      -2.41282593      -0.64661526      -2.65938651       0.00000000
Si      -0.98583822       3.50368629      -1.20928448       0.00000000
Si      -3.66578757       0.75660534      -1.17748035       0.00000000
