10
Lattice="16.28999089631971 0.0 0.0 0.0 16.28999089631971 0.0 0.0 0.0 34.64500226677339" Properties=species:S:1:pos:R:3:initial_magmoms:R:1 pbc="T T T"
Si      -2.24704260       0.60657444      -0.50408506       0.00000000
Si       0.35662068       1.43627368       1.88191757       0.00000000
Si       1.15535196       0.67132719      -1.99680047       0.00000000
Si       0.13193271      -2.44402128       0.41459697       0.00000000
Si       3.45147633      -1.06749999      -0.11228452       0.00000000
Si      -2.57484627      -0.82539801      -2.41264466       0.00000000
Si       2.47124187      -1.25294535      -2.42539403       0.00000000
Si       1.92754683       0.20875635       3.18668373       0.00000000
Si      -3.75241779      -0.31651470       1.13940547       0.00000000
Si       0.96410736       3.66413318       1.09602990       0.00000000
