10
Lattice="16.28999089631971 0.0 0.0 0.0 16.28999089631971 0.0 0.0 0.0 34.64500226677339" Properties=species:S:1:pos:R:3:initial_magmoms:R:1 pbc="T T T"
Si      -1.35482301      -1.35536103       1.35784233       0.00000000
Si       1.35736425      -1.35731583      -1.35649118       0.00000000
Si      -1.35720135       1.35731886      -1.35697621       0.00000000
Si       1.36086660       1.35897881       1.35742659       0.00000000
Si       0.00078192      -2.71161756      -2.71409099       0.00000000
Si      -2.71244790      -0.00006561      -2.71450673       0.00000000
Si       0.00100998       2.71522393      -2.71322487       0.00000000
Si       2.71492823       2.71491442       0.00010394       0.00000000
Si      -2.71507059      -2.71490814       0.00045039       0.00000000
Si       2.71496705      -2.71516878       0.00024252       0.00000000
