10
Lattice="16.28999089631971 0.0 0.0 0.0 16.28999089631971 0.0 0.0 0.0 34.64500226677339" Properties=species:S:1:pos:R:3:initial_magmoms:R:1 pbc="T T T"
Si       1.35273789      -1.35656278      -1.35631795       0.00000000
Si       1.35627282       1.35733167       1.35642189       0.00000000
Si      -1.35821133      -1.35790508       1.35624866       0.00000000
Si      -1.35928647       1.35733167      -1.36120290       0.00000000
Si       0.00739566      -2.70626489      -2.70598406       0.00000000
Si       2.71488888       0.01883124      -2.70609839       0.00000000
Si       2.71391825      -0.00030951       2.71332880       0.00000000
Si       2.71518981      -2.71240481      -0.00155903       0.00000000
Si      -0.00100998      -2.71522393       2.71322487       0.00000000
Si      -0.00089595       2.71469592       2.71377919       0.00000000
