10
Lattice="16.28999089631971 0.0 0.0 0.0 16.28999089631971 0.0 0.0 0.0 34.64500226677339" Properties=species:S:1:pos:R:3:initial_magmoms:R:1 pbc="T T T"
Si      -1.74636945      -0.18147060       1.64044177       0.00000000
Si      -0.37804203      -0.75897228      -2.25629168       0.00000000
Si       0.80257802       2.27237355       0.04860697       0.00000000
Si       1.66571996      -1.50876840       0.95013972       0.00000000
Si       3.21143408       1.78603560      -0.24144116       0.00000000
Si      -1.06518681      -3.00041342      -1.90914856       0.00000000
Si       1.76071509      -0.42788943      -3.28102213       0.00000000
Si      -0.39926790       3.39809400      -1.73644313       0.00000000
Si      -2.64572406      -2.37282488       1.62197598       0.00000000
Si       3.53886308      -0.13015710      -1.77313221       0.00000000
