10
Lattice="16.28999089631971 0.0 0.0 0.0 16.28999089631971 0.0 0.0 0.0 34.64500226677339" Properties=species:S:1:pos:R:3:initial_magmoms:R:1 pbc="T T T"
Si      -1.35591444      -1.35703845      -1.35662976       0.00000000
Si      -1.35723393       1.35690813       1.35749588       0.00000000
Si       1.35788553      -1.35791811       1.35749588       0.00000000
Si       1.35886293       1.35870003      -1.35607544       0.00000000
Si      -2.71197549       0.00096111       2.71298235       0.00000000
Si       0.00159642      -2.71228500       2.71492247       0.00000000
Si      -2.71472850       2.71466334      -0.00038110       0.00000000
Si       2.71560816       2.71428867      -0.00020787       0.00000000
Si      -2.71521720      -2.71494027       0.00010394       0.00000000
Si       2.71505430      -2.71528236       0.00013858       0.00000000
