10
Lattice="16.28999089631971 0.0 0.0 0.0 16.28999089631971 0.0 0.0 0.0 34.64500226677339" Properties=species:S:1:pos:R:3:initial_magmoms:R:1 pbc="T T T"
Si      -1.61401320      -0.89406036       1.39082439       0.00000000
Si      -1.50742773       1.21337694      -1.36889409       0.00000000
Si       1.22321610      -1.51101153      -1.38122772       0.00000000
Si       0.57573747       2.10615039       1.10431006       0.00000000
Si       2.56037297      -0.15626997      -2.74922105       0.00000000
Si      -0.15716592       2.55858885      -2.75175013       0.00000000
Si      -2.74867686      -2.64657114       0.09991624       0.00000000
Si       2.69202906       2.73843045       0.01188324       0.00000000
Si       2.78523066      -2.71458189      -0.02380113       0.00000000
Si      -2.72060919       2.80810278       0.14110917       0.00000000
