10
Lattice="16.28999089631971 0.0 0.0 0.0 16.28999089631971 0.0 0.0 0.0 34.64500226677339" Properties=species:S:1:pos:R:3:initial_magmoms:R:1 pbc="T T T"
Si      -1.80388944       1.46908107      -0.44387202       0.00000000
Si       2.10220821       0.68947425       0.88375986       0.00000000
Si       0.05277960      -0.96777261      -2.22881818       0.00000000
Si      -1.47504321      -1.48823811       1.45869399       0.00000000
Si      -3.30818949       0.10736739       0.67710230       0.00000000
Si       3.16880640      -1.41081174       1.28682004       0.00000000
Si      -1.48278096      -2.76641667      -1.98134879       0.00000000
Si       3.08642608       1.94326668      -0.87870168       0.00000000
Si      -0.96487299      -3.66634143       0.15029010       0.00000000
Si      -1.46072430       2.44628559      -2.53681242       0.00000000
