10
Lattice="16.28999089631971 0.0 0.0 0.0 16.28999089631971 0.0 0.0 0.0 34.64500226677339" Properties=species:S:1:pos:R:3:initial_magmoms:R:1 pbc="T T T"
Si       1.35705474       1.35646830       1.35694156       0.00000000
Si      -1.35877985       1.35523026      -1.35721872       0.00000000
Si      -1.35768679      -1.35868374       1.35721872       0.00000000
Si       1.35578412      -1.35780408      -1.36355876       0.00000000
Si      -2.71148195       2.71432125       0.00058897       0.00000000
Si       0.00016290       2.71383255       2.71433351       0.00000000
Si      -2.71337238      -2.71555929       0.00051968       0.00000000
Si      -2.71500208      -0.00148239       2.71436815       0.00000000
Si       2.71533123       2.71440270       0.00038110       0.00000000
Si       2.71544526      -0.00203625       2.71457602       0.00000000
