10
Lattice="16.28999089631971 0.0 0.0 0.0 16.28999089631971 0.0 0.0 0.0 34.64500226677339" Properties=species:S:1:pos:R:3:initial_magmoms:R:1 pbc="T T T"
Si       1.36275197      -1.35379674       1.36456347       0.00000000
Si      -1.35477414       1.36392912       1.36411308       0.00000000
Si      -1.34384355      -1.35018036      -1.40932137       0.00000000
Si       1.36555812       1.36158336      -1.38110646       0.00000000
Si       2.71545408      -2.71288773       0.00675578       0.00000000
Si      -2.71559187      -2.71298547       0.00280625       0.00000000
Si      -2.71507059       2.71621089       0.00554320       0.00000000
Si       0.00228060      -2.71231758       2.72105464       0.00000000
Si       2.71896294       2.71551042       0.00291018       0.00000000
Si      -2.71362078       0.00360009       2.72133180       0.00000000
