10
Lattice="16.28999089631971 0.0 0.0 0.0 16.28999089631971 0.0 0.0 0.0 34.64500226677339" Properties=species:S:1:pos:R:3:initial_magmoms:R:1 pbc="T T T"
Si       1.73545664       0.91834875      -1.26482045       0.00000000
Si       0.10160073      -2.18082375       0.93739035       0.00000000
Si       0.47591235       1.27296576       2.01058919       0.00000000
Si      -0.98023446      -0.18544536      -2.31310951       0.00000000
Si      -2.29612437       1.73882718      -1.88451595       0.00000000
Si       2.60931495      -1.10648196      -2.09287111       0.00000000
Si      -3.45147633       1.06749999       0.11228452       0.00000000
Si      -3.31954362      -1.37652129       0.52688149       0.00000000
Si       1.83478947      -2.12382504       2.45899970       0.00000000
Si      -1.89758952      -2.45882889       2.11497464       0.00000000
