10
Lattice="16.28999089631971 0.0 0.0 0.0 16.28999089631971 0.0 0.0 0.0 34.64500226677339" Properties=species:S:1:pos:R:3:initial_magmoms:R:1 pbc="T T T"
Si       0.68714478       2.24144114      -0.34714312       0.00000000
Si      -1.99984185       0.00329058       1.28837906       0.00000000
Si      -0.47591235      -1.27296576      -2.01058919       0.00000000
Si       1.83064318      -1.17299403       1.10853676       0.00000000
Si       1.25954429      -0.35461701      -3.27540963       0.00000000
Si      -0.37431162      -3.45378951      -1.07319883       0.00000000
Si       1.35887712      -3.39679080       0.44841051       0.00000000
Si       1.06518681       3.00041342       1.90914856       0.00000000
Si      -3.57076800       1.23080791      -0.01638710       0.00000000
Si      -1.58053725       0.62758854       3.53112454       0.00000000
