10
Lattice="16.28999089631971 0.0 0.0 0.0 16.28999089631971 0.0 0.0 0.0 34.64500226677339" Properties=species:S:1:pos:R:3:initial_magmoms:R:1 pbc="T T T"
Si       0.08437243       0.92717793      -2.14414574       0.00000000
Si       2.20836037      -0.23198589       0.73402407       0.00000000
Si      -0.99831962      -2.11217769      -0.38490619       0.00000000
Si      -1.39881253       1.35891180       1.37495697       0.00000000
Si      -2.17276087      -0.16469190      -2.78739986       0.00000000
Si       0.30972829      -2.79930618      -2.30288923       0.00000000
Si      -2.67517705       2.44211535      -0.36831122       0.00000000
Si       1.93139779      -1.29508758       2.88956803       0.00000000
Si      -3.30685438      -1.66185693      -0.73315795       0.00000000
Si      -0.47762606      -3.48995331       1.45668458       0.00000000
