10
Lattice="16.28999089631971 0.0 0.0 0.0 16.28999089631971 0.0 0.0 0.0 34.64500226677339" Properties=species:S:1:pos:R:3:initial_magmoms:R:1 pbc="T T T"
Si       1.35716714       1.35624024      -1.35888168       0.00000000
Si      -1.36011444       1.36039419       1.35361564       0.00000000
Si      -1.35799783      -1.35907470      -1.35884704       0.00000000
Si       1.35829115      -1.36140417       1.36002497       0.00000000
Si      -2.71392282      -2.71282257      -0.00138580       0.00000000
Si       0.00052617       2.71267596      -2.71599647       0.00000000
Si      -2.71437894       2.71438641      -0.00225193       0.00000000
Si       2.71405898      -0.00112401      -2.71627363       0.00000000
Si       2.71651877       2.71399545      -0.00148974       0.00000000
Si      -2.71494909      -0.00179190      -2.71613505       0.00000000
