10
Lattice="16.28999089631971 0.0 0.0 0.0 16.28999089631971 0.0 0.0 0.0 34.64500226677339" Properties=species:S:1:pos:R:3:initial_magmoms:R:1 pbc="T T T"
Si       2.37294801       0.04342914      -0.14599412       0.00000000
Si      -1.22715828      -2.04320583       0.05834222       0.00000000
Si      -0.77931360       1.49426541       1.69746748       0.00000000
Si       0.14763627       0.34046100      -2.46672554       0.00000000
Si       0.82722249       2.66017329      -2.04419486       0.00000000
Si       2.66815539       2.35999746      -0.50159062       0.00000000
Si       0.19288989       0.65011761       3.70410713       0.00000000
Si       2.88622962      -1.74873150      -1.70366894       0.00000000
Si      -0.03981276       3.68952210       1.25525842       0.00000000
Si       3.40812864      -0.39213288       1.88891587       0.00000000
