10
Lattice="16.28999089631971 0.0 0.0 0.0 16.28999089631971 0.0 0.0 0.0 34.64500226677339" Properties=species:S:1:pos:R:3:initial_magmoms:R:1 pbc="T T T"
Si       1.96917593       0.46419984      -1.16556246       0.00000000
Si       0.49186840      -0.22960755       2.31269377       0.00000000
Si      -0.93405720      -1.79738973      -1.29222466       0.00000000
Si      -1.38608256       1.88942823      -0.55390461       0.00000000
Si      -1.36547571       1.44933759      -2.83174549       0.00000000
Si      -2.89842987      -0.87399108       1.71506715       0.00000000
Si       0.99697243       1.30834764      -3.17220212       0.00000000
Si      -3.18326052       1.37627694       0.89855328       0.00000000
Si       2.93792593       2.13078087       0.12572678       0.00000000
Si      -2.49585510      -2.77136883       0.18358397       0.00000000
