10
Lattice="16.28999089631971 0.0 0.0 0.0 16.28999089631971 0.0 0.0 0.0 34.64500226677339" Properties=species:S:1:pos:R:3:initial_magmoms:R:1 pbc="T T T"
Si       2.17422630      -0.81899604       0.18143598       0.00000000
Si      -1.79397602      -0.92613537       1.22296926       0.00000000
Si      -0.49186840       0.22960755      -2.31269377       0.00000000
Si       0.28344600       2.31324516       0.70488761       0.00000000
Si      -3.39029828      -0.64438353      -0.59762662       0.00000000
Si       3.41715330       1.06978059      -0.50138275       0.00000000
Si       2.60519454      -0.98345988       2.47653008       0.00000000
Si      -1.53169836       0.04489524       3.45771174       0.00000000
Si       1.47730752       0.69380739      -3.47825624       0.00000000
Si       0.85814091       3.69853047      -1.12949700       0.00000000
