10
Lattice="16.28999089631971 0.0 0.0 0.0 16.28999089631971 0.0 0.0 0.0 34.64500226677339" Properties=species:S:1:pos:R:3:initial_magmoms:R:1 pbc="T T T"
Si       1.79346873       1.01849967      -1.13760324       0.00000000
Si       1.28351028      -1.37241621       1.47749238       0.00000000
Si      -0.72720352      -1.68187734      -1.54931293       0.00000000
Si      -1.41478880       1.33015995       1.45090925       0.00000000
Si       2.63786088      -2.60071479      -0.00068251       0.00000000
Si      -2.61371651      -2.76193692      -0.18312319       0.00000000
Si       3.51590817      -0.69602283      -1.33440987       0.00000000
Si       2.65113723      -0.03227049       2.83593061       0.00000000
Si       2.70984639       2.77961157       0.05892772       0.00000000
Si      -0.06138398       2.68408701       2.83492590       0.00000000
