10
Lattice="16.28999089631971 0.0 0.0 0.0 16.28999089631971 0.0 0.0 0.0 34.35334932831803" Properties=species:S:1:pos:R:3:initial_magmoms:R:1 pbc="T T T"
Si      -1.16294310       1.44453204      -1.38263033       0.00000000
Si      -1.37200896      -1.33685514       1.35175696       0.00000000
Si       1.34601012       1.38069153       1.35508923       0.00000000
Si       1.40077710      -1.31458508      -1.42554456       0.00000000
Si      -2.72135853      -2.68028234      -0.03857540       0.00000000
Si      -0.01265733      -2.69312200       2.71184117       0.00000000
Si       2.71914309      -2.69190669      -0.01455552       0.00000000
Si       2.70278793       0.02256165       2.71228776       0.00000000
Si       2.69257410       2.73689919      -0.00229481       0.00000000
Si      -2.72722293       0.02331099       2.71263130       0.00000000
