10
Lattice="16.28999089631971 0.0 0.0 0.0 16.28999089631971 0.0 0.0 0.0 34.35334932831803" Properties=species:S:1:pos:R:3:initial_magmoms:R:1 pbc="T T T"
Si       2.23131135      -0.28108069       0.77995888       0.00000000
Si      -0.96109974       1.28955387       1.78142828       0.00000000
Si      -1.33296413      -2.07295367       0.18038954       0.00000000
Si       0.88388400       1.02513459      -2.07964987       0.00000000
Si      -0.96053985      -0.25651700      -2.59065623       0.00000000
Si       3.01007109      -2.08691420      -0.51014752       0.00000000
Si       0.08806863       0.47493658       3.74850216       0.00000000
Si       2.04684339      -0.71221739       3.10877373       0.00000000
Si       1.12986300       3.33199407      -1.53631699       0.00000000
Si      -0.62465308      -3.23267135       2.18404976       0.00000000
