10
Lattice="16.28999089631971 0.0 0.0 0.0 16.28999089631971 0.0 0.0 0.0 34.35334932831803" Properties=species:S:1:pos:R:3:initial_magmoms:R:1 pbc="T T T"
Si       0.11943828       0.79264371       2.19105784       0.00000000
Si       2.10975048       0.85209243      -0.57638082       0.00000000
Si      -1.66705344       1.35426101      -1.10023533       0.00000000
Si      -0.34342578      -2.38882980       0.11927490       0.00000000
Si      -2.04564933       0.27338855       2.92786889       0.00000000
Si      -3.50606412      -0.06443672      -0.92530798       0.00000000
Si       3.72884616      -0.22033202       0.77033994       0.00000000
Si       2.55694356       0.48268410      -2.83652329       0.00000000
Si       1.70023617      -3.46866132      -0.46091915       0.00000000
Si       0.55364823       3.11431405       2.31297795       0.00000000
