10
Lattice="16.28999089631971 0.0 0.0 0.0 16.28999089631971 0.0 0.0 0.0 34.35334932831803" Properties=species:S:1:pos:R:3:initial_magmoms:R:1 pbc="T T T"
Si      -0.94195296      -1.53699408       1.58877459       0.00000000
Si       1.46183202      -0.09821241      -2.01513424       0.00000000
Si      -1.44863712       2.04169086       0.07660801       0.00000000
Si       1.43876538       0.79345332       1.93402594       0.00000000
Si      -2.28965724       1.74723282      -2.09957482       0.00000000
Si       0.89824689      -3.07483198       1.65610719       0.00000000
Si       2.69750997       1.90363311      -1.51020843       0.00000000
Si      -2.32813422      -2.78398869       0.20811271       0.00000000
Si      -2.39055750       1.74633687       2.30627904       0.00000000
Si       2.97986454       2.25652338       0.81496496       0.00000000
