10
Lattice="16.28999089631971 0.0 0.0 0.0 16.28999089631971 0.0 0.0 0.0 34.35334932831803" Properties=species:S:1:pos:R:3:initial_magmoms:R:1 pbc="T T T"
Si       0.56899341      -2.29519325      -0.16163260       0.00000000
Si      -2.04903765       0.37510331       1.21851398       0.00000000
Si       1.71929547       0.76678007       1.56465852       0.00000000
Si       0.35665326      -0.17345103      -2.46001037       0.00000000
Si      -0.66158577       3.56124812      -0.21821260       0.00000000
Si       3.38343300      -0.80330551       1.04142237       0.00000000
Si      -1.80305865       2.68196279       1.76184686       0.00000000
Si       2.08562499      -1.99866638      -2.39972021       0.00000000
Si       2.14938405      -2.76867839       1.59382453       0.00000000
Si       0.07714944      -2.73694547       2.78801633       0.00000000
