10
Lattice="16.28999089631971 0.0 0.0 0.0 16.28999089631971 0.0 0.0 0.0 34.35334932831803" Properties=species:S:1:pos:R:3:initial_magmoms:R:1 pbc="T T T"
Si      -1.28285379      -1.43638704      -1.38341015       0.00000000
Si       1.52122536       1.31891985      -1.33019678       0.00000000
Si      -1.05689520       1.21798701       1.84855476       0.00000000
Si      -0.08112420       0.05870916       3.67392100       0.00000000
Si       2.22760863       0.35688132       2.93834667       0.00000000
Si      -2.41450380      -3.00264285      -0.01697056       0.00000000
Si      -2.62936890      -0.05879061      -2.83253830       0.00000000
Si       0.09001854       2.65466727      -2.82649210       0.00000000
Si       0.09106110      -2.77032790      -2.85541764       0.00000000
Si       2.80214064      -0.06235812      -2.84895921       0.00000000
