10
Lattice="16.28999089631971 0.0 0.0 0.0 16.28999089631971 0.0 0.0 0.0 34.35334932831803" Properties=species:S:1:pos:R:3:initial_magmoms:R:1 pbc="T T T"
Si      -1.92520107      -1.24804206      -0.26407434       0.00000000
Si       0.23268636       2.21188878       0.76539305       0.00000000
Si       1.01902095      -1.25815815       1.71467968       0.00000000
Si       0.82754829       0.12786021      -2.21077668       0.00000000
Si       2.72163546      -1.17323838      -1.68012019       0.00000000
Si       2.22369903       2.59239060      -0.44779616       0.00000000
Si       3.46186935       0.49381506      -0.20842189       0.00000000
Si      -0.61260174      -0.86644881       3.37250454       0.00000000
Si      -2.32257933      -1.87028748       2.05673617       0.00000000
Si      -1.93965030       3.05857782       0.36655044       0.00000000
