10
Lattice="16.28999089631971 0.0 0.0 0.0 16.28999089631971 0.0 0.0 0.0 34.35334932831803" Properties=species:S:1:pos:R:3:initial_magmoms:R:1 pbc="T T T"
Si       1.80594198       0.94369599       1.21858269       0.00000000
Si      -1.60591707      -1.08540270       1.41511831       0.00000000
Si      -1.19931867       1.49027436      -1.51494920       0.00000000
Si       1.49793066      -1.24019028      -1.51896854       0.00000000
Si      -3.31094250       0.93040335       1.27945686       0.00000000
Si       0.60916455       1.87445772       3.16552550       0.00000000
Si      -2.74375728      -2.57054571       0.01229851       0.00000000
Si       2.93040810      -2.48005476      -0.00669891       0.00000000
Si      -2.59338429       2.86726806      -0.01315734       0.00000000
Si      -2.55943593       0.12145824      -2.90760041       0.00000000
