10
Lattice="16.28999089631971 0.0 0.0 0.0 16.28999089631971 0.0 0.0 0.0 34.35334932831803" Properties=species:S:1:pos:R:3:initial_magmoms:R:1 pbc="T T T"
Si       0.16729830       0.99629640      -2.15904051       0.00000000
Si       0.33124086      -2.31104601      -0.48500086       0.00000000
Si       2.04247278       0.94903911       0.87298780       0.00000000
Si      -2.31555834      -0.26293689       0.72001225       0.00000000
Si      -1.90811286       0.06377535      -2.75977786       0.00000000
Si       2.21096025      -0.08353512      -2.73923455       0.00000000
Si      -2.22039216       0.49596534       2.91014255       0.00000000
Si       3.43593567       0.95433336      -1.03819315       0.00000000
Si      -3.52885383       0.60334902      -1.11624400       0.00000000
Si       1.73408679      -2.35307421      -2.36952359       0.00000000
