10
Lattice="16.28999089631971 0.0 0.0 0.0 16.28999089631971 0.0 0.0 0.0 34.35334932831803" Properties=species:S:1:pos:R:3:initial_magmoms:R:1 pbc="T T T"
Si      -0.30846744       1.45108062      -1.73395192       0.00000000
Si       0.39355011      -2.22203745      -0.55614668       0.00000000
Si       2.07541116       0.93252105       0.60073736       0.00000000
Si      -1.62074097       0.53957367       1.64353386       0.00000000
Si       1.90811286      -0.06377535       2.75977786       0.00000000
Si      -1.08722718       3.25691413      -0.44384552       0.00000000
Si      -0.40744548      -0.32671224       3.47979011       0.00000000
Si       0.13079241      -3.20978160       1.56441805       0.00000000
Si      -1.27169514       2.82577743       1.88496933       0.00000000
Si       1.76376717       1.41934770      -2.92814372       0.00000000
