10
Lattice="16.28999089631971 0.0 0.0 0.0 16.28999089631971 0.0 0.0 0.0 34.35334932831803" Properties=species:S:1:pos:R:3:initial_magmoms:R:1 pbc="T T T"
Si      -1.86856074       1.19283755       0.85313155       0.00000000
Si      -0.02847492       0.87406506      -2.22575475       0.00000000
Si      -0.71394183      -2.28848436       0.03483432       0.00000000
Si       1.98604422      -0.23170896       1.37255449       0.00000000
Si       0.44706276      -1.16655948       3.14013836       0.00000000
Si      -2.77298154      -2.21325714       1.10119723       0.00000000
Si      -1.86116508       0.75234943       3.14426076       0.00000000
Si      -3.74358698      -0.17632296       0.46593474       0.00000000
Si       3.38457330       1.54454679       0.69830092       0.00000000
Si      -0.80910801      -3.04738659      -2.15529599       0.00000000
