10
Lattice="16.28999089631971 0.0 0.0 0.0 16.28999089631971 0.0 0.0 0.0 34.35334932831803" Properties=species:S:1:pos:R:3:initial_magmoms:R:1 pbc="T T T"
Si       1.35360126       1.34351286      -1.37578370       0.00000000
Si      -1.36361961      -1.36665194      -1.37568064       0.00000000
Si       1.23367428      -1.51281550       1.37681430       0.00000000
Si      -1.34091135       1.42426239       1.44926556       0.00000000
Si      -2.26940877      -0.57196471       2.37735616       0.00000000
Si      -0.72899379      -2.36805679       2.73305094       0.00000000
Si       2.69661402       2.69522448       0.01003118       0.00000000
Si      -2.72945466       2.70437946       0.00364146       0.00000000
Si      -0.00537570       2.70149613      -2.73476861       0.00000000
Si       2.70690930      -0.01169296      -2.73531826       0.00000000
