10
Lattice="16.28999089631971 0.0 0.0 0.0 16.28999089631971 0.0 0.0 0.0 34.35334932831803" Properties=species:S:1:pos:R:3:initial_magmoms:R:1 pbc="T T T"
Si      -1.35967743       1.35268653      -1.35936279       0.00000000
Si       1.35672894      -1.36291253      -1.35901926       0.00000000
Si      -1.36236528      -1.38560450       1.35396931       0.00000000
Si       1.36361961       1.36665194       1.37568064       0.00000000
Si       2.59729389      -0.14616356       2.75249495       0.00000000
Si       2.71722087       2.71016481      -0.00010306       0.00000000
Si      -0.00063531       2.71167978      -2.71597732       0.00000000
Si      -2.71507059       2.71280379      -0.00188944       0.00000000
Si       2.71489140      -0.00352707      -2.71656132       0.00000000
Si      -2.71598283      -0.00316676      -2.71614908       0.00000000
