10
Lattice="16.28999089631971 0.0 0.0 0.0 16.28999089631971 0.0 0.0 0.0 34.35334932831803" Properties=species:S:1:pos:R:3:initial_magmoms:R:1 pbc="T T T"
Si      -1.20888090       1.38914604      -1.41889718       0.00000000
Si       2.30718528       0.29439288      -0.14218859       0.00000000
Si      -0.84624921      -2.18091823       0.25270338       0.00000000
Si      -1.14693003       0.53563149       2.00740474       0.00000000
Si      -1.29344229      -1.81150990       2.51284585       0.00000000
Si       2.63704149      -1.68053667      -1.36472192       0.00000000
Si      -0.48317769       3.44035026      -0.45322399       0.00000000
Si      -3.51761373       1.09097388      -0.68332285       0.00000000
Si       3.13716078       0.74971467       2.02959701       0.00000000
Si      -3.04101720       1.83673008       1.47674825       0.00000000
