10
Lattice="16.28999089631971 0.0 0.0 0.0 16.28999089631971 0.0 0.0 0.0 34.35334932831803" Properties=species:S:1:pos:R:3:initial_magmoms:R:1 pbc="T T T"
Si      -1.35782037       1.35685926      -1.36104611       0.00000000
Si       1.35954711      -1.35874890      -1.36011857       0.00000000
Si      -1.36453185      -1.35586557       1.37829150       0.00000000
Si       1.36352187       1.37569050       1.38461252       0.00000000
Si       2.71622718       2.71067229      -0.00103060       0.00000000
Si      -2.71298547       2.71458189       0.00188944       0.00000000
Si      -2.71376739      -2.71409319      -0.00292004       0.00000000
Si      -2.71384884      -0.00055386      -2.71752322       0.00000000
Si       0.00083079       2.71428867      -2.71731710       0.00000000
Si       0.00066789      -2.71521720      -2.71700792       0.00000000
