10
Lattice="16.28999089631971 0.0 0.0 0.0 16.28999089631971 0.0 0.0 0.0 34.35334932831803" Properties=species:S:1:pos:R:3:initial_magmoms:R:1 pbc="T T T"
Si       1.00310562       1.68567291      -1.43631434       0.00000000
Si      -1.70149050      -1.11707046      -1.43858166       0.00000000
Si      -0.87399108       1.31354415       1.96686776       0.00000000
Si       1.84821453      -1.82573433       0.07042441       0.00000000
Si      -0.99510723      -2.07910899       2.82996179       0.00000000
Si       2.30747850       0.23320764      -2.95102306       0.00000000
Si      -0.26940402      -0.02790477       3.79563498       0.00000000
Si      -0.42057522      -2.49834843      -2.95734408       0.00000000
Si       1.89304461       3.45598866       0.17211038       0.00000000
Si      -3.23794701       1.45018467       1.89733654       0.00000000
