10
Lattice="16.28999089631971 0.0 0.0 0.0 16.28999089631971 0.0 0.0 0.0 34.35334932831803" Properties=species:S:1:pos:R:3:initial_magmoms:R:1 pbc="T T T"
Si       1.34846991       1.35889551       1.36984057       0.00000000
Si      -1.37219141      -1.35288450       1.37186742       0.00000000
Si      -1.16743914       1.51400889      -1.40547188       0.00000000
Si       1.55264877      -1.28532987      -1.36825688       0.00000000
Si       0.91530252       1.62404784      -2.83337793       0.00000000
Si      -2.60873778       0.12815343      -2.63855204       0.00000000
Si      -2.69567360      -2.71098180       0.02302706       0.00000000
Si       2.69379585       2.72655504       0.00028170       0.00000000
Si       2.70229923       0.00566892       2.72776052       0.00000000
Si      -0.01163106      -2.70655092       2.72700475       0.00000000
