10
Lattice="16.28999089631971 0.0 0.0 0.0 16.28999089631971 0.0 0.0 0.0 34.35334932831803" Properties=species:S:1:pos:R:3:initial_magmoms:R:1 pbc="T T T"
Si      -0.91911438      -1.83106116      -1.16424081       0.00000000
Si      -1.44278901       1.25134893       1.46036857       0.00000000
Si       1.27417122      -1.43977536       1.47179450       0.00000000
Si       1.55256732       1.26873036      -1.43650813       0.00000000
Si      -2.67600717      -2.69343747       0.09667725       0.00000000
Si       2.59408476      -2.80945485       0.08797211       0.00000000
Si       2.73412989       2.68954416       0.09165479       0.00000000
Si      -3.02241402       2.36692071       0.08780721       0.00000000
Si      -0.08882937       2.61866637       2.83181000       0.00000000
Si       2.62689282      -0.09873369       2.83713478       0.00000000
