10
Lattice="16.28999089631971 0.0 0.0 0.0 16.28999089631971 0.0 0.0 0.0 34.35334932831803" Properties=species:S:1:pos:R:3:initial_magmoms:R:1 pbc="T T T"
Si       1.35834165       1.35553977      -1.35737030       0.00000000
Si      -1.35738054       1.35747828       1.35706112       0.00000000
Si       1.35731538      -1.35791811       1.35757642       0.00000000
Si      -1.35962856      -1.35985662      -1.35737030       0.00000000
Si       2.71448415      -0.00120546      -2.71267939       0.00000000
Si      -2.71417464       0.00034209       2.71429400       0.00000000
Si      -0.00133578      -2.71534752       2.71384741       0.00000000
Si       2.71461447       2.71503801      -0.00013741       0.00000000
Si      -0.00096111       2.71603170       2.71370999       0.00000000
Si       2.71476108      -2.71507059      -0.00006871       0.00000000
