10
Lattice="16.28999089631971 0.0 0.0 0.0 16.28999089631971 0.0 0.0 0.0 34.35334932831803" Properties=species:S:1:pos:R:3:initial_magmoms:R:1 pbc="T T T"
Si       1.69176537       0.73153503      -1.62567011       0.00000000
Si      -0.88993899      -1.77031575      -1.60842471       0.00000000
Si      -2.01440511       1.65343500      -0.38314312       0.00000000
Si       0.44672067       1.88007777       2.07398156       0.00000000
Si       1.49385816      -1.38797316       2.41675948       0.00000000
Si       3.17477439       1.93233609      -0.20739129       0.00000000
Si       0.42832926       2.17636029      -3.13948564       0.00000000
Si      -2.32241643      -0.53045127      -3.12069435       0.00000000
Si      -2.76703569      -2.14244451       1.79475739       0.00000000
Si      -1.89304461      -3.45598866      -0.17211038       0.00000000
