10
Lattice="16.28999089631971 0.0 0.0 0.0 16.28999089631971 0.0 0.0 0.0 34.35334932831803" Properties=species:S:1:pos:R:3:initial_magmoms:R:1 pbc="T T T"
Si       0.81290358       2.05912116      -0.72234828       0.00000000
Si       1.55230668      -0.46555191       1.77727152       0.00000000
Si      -2.43027252       0.90042975       1.05111002       0.00000000
Si      -0.24219972      -1.92531510      -2.09658608       0.00000000
Si      -1.42473969      -2.69182476       1.18481333       0.00000000
Si      -3.02445027      -1.25494902       0.19461183       0.00000000
Si       0.36238734      -3.26676402      -0.26781886       0.00000000
Si      -1.33426503       1.18107387       3.18342360       0.00000000
Si       2.10523815      -2.71145421       1.29151489       0.00000000
Si      -0.68634657       2.80132614      -2.32754378       0.00000000
