10
Lattice="16.28999089631971 0.0 0.0 0.0 16.28999089631971 0.0 0.0 0.0 34.35334932831803" Properties=species:S:1:pos:R:3:initial_magmoms:R:1 pbc="T T T"
Si       1.32273171      -0.01467729       1.94529385       0.00000000
Si      -1.12692591      -1.89087804      -0.87978977       0.00000000
Si       1.65363048       0.88324380      -1.49385623       0.00000000
Si      -1.84945257       1.58943159       0.31828396       0.00000000
Si       0.34814988       2.75261904      -2.04069315       0.00000000
Si      -1.55494566      -0.89697627      -3.10997610       0.00000000
Si      -1.63359378       1.53311706      -2.83741647       0.00000000
Si      -2.99863062      -1.98066852       0.67315426       0.00000000
Si      -0.56358513       3.61812303       0.00948153       0.00000000
Si       1.18732923      -2.44623672       2.61446311       0.00000000
