10
Lattice="16.28999089631971 0.0 0.0 0.0 16.28999089631971 0.0 0.0 0.0 34.35334932831803" Properties=species:S:1:pos:R:3:initial_magmoms:R:1 pbc="T T T"
Si       1.30548060      -1.86937524       0.54683692       0.00000000
Si       0.90103248       1.56250422      -1.57822810       0.00000000
Si      -0.91173501       0.86550399       2.05017468       0.00000000
Si      -1.98174366      -1.21950198      -0.79672332       0.00000000
Si      -2.19760245      -1.16318745       2.35897711       0.00000000
Si      -0.34814988      -2.75261904       2.04069315       0.00000000
Si      -3.79183959      -0.65919114       0.66927233       0.00000000
Si      -0.82994292       2.86130822      -2.53091572       0.00000000
Si      -1.41861465       3.20243548       1.75487312       0.00000000
Si      -3.11055921      -0.00649971      -2.41985128       0.00000000
