10
Lattice="16.28999089631971 0.0 0.0 0.0 16.28999089631971 0.0 0.0 0.0 34.35334932831803" Properties=species:S:1:pos:R:3:initial_magmoms:R:1 pbc="T T T"
Si       1.35563751       1.35848605       1.35692370       0.00000000
Si      -1.35765747       1.35701832      -1.35719853       0.00000000
Si       1.35698958      -1.35739808      -1.35750771       0.00000000
Si      -1.35816246      -1.35938546       1.35754206       0.00000000
Si       0.00301365      -2.71490894       2.71374435       0.00000000
Si      -2.71520091       0.00127369      -2.71388176       0.00000000
Si       2.71416624      -2.71494152       0.00010306       0.00000000
Si       2.71457520       2.71492991       0.00024047       0.00000000
Si       0.00232947       2.71369187       2.71645826       0.00000000
Si      -0.00076563      -2.71529990      -2.71515283       0.00000000
