10
Lattice="16.28999089631971 0.0 0.0 0.0 16.28999089631971 0.0 0.0 0.0 34.35334932831803" Properties=species:S:1:pos:R:3:initial_magmoms:R:1 pbc="T T T"
Si      -0.32985621       1.97492955       1.22253333       0.00000000
Si       2.04493257       0.37425786      -1.09236841       0.00000000
Si      -0.22885821      -2.09065438       1.07347406       0.00000000
Si      -2.63704149       1.68053667       1.36472192       0.00000000
Si       0.31586310       3.57859860      -0.52134672       0.00000000
Si      -2.49680088      -2.45792872       0.95179443       0.00000000
Si       3.55184132      -1.02293870       0.15802550       0.00000000
Si      -3.48329070      -0.50038156       1.61742530       0.00000000
Si       2.60890866       2.74785747      -0.95454270       0.00000000
Si       0.68688414      -3.85789132      -0.09010889       0.00000000
