10
Lattice="16.28999089631971 0.0 0.0 0.0 16.28999089631971 0.0 0.0 0.0 34.35334932831803" Properties=species:S:1:pos:R:3:initial_magmoms:R:1 pbc="T T T"
Si       1.35702216       1.35845568       1.35644276       0.00000000
Si      -1.35656604      -1.35830907       1.35726724       0.00000000
Si       1.35739683      -1.35739683      -1.35767948       0.00000000
Si      -1.35783666       1.35757602      -1.35757642       0.00000000
Si       0.00011403       2.71111212       2.71635520       0.00000000
Si      -0.00024435      -2.71389771      -2.71532460       0.00000000
Si       2.71497139       2.71458189      -0.00017177       0.00000000
Si       2.71465665      -2.71505430       0.00003435       0.00000000
Si      -2.71489140       0.00083079      -2.71498107       0.00000000
Si      -2.71528236       2.71472850       0.00006871       0.00000000
