10
Lattice="16.28999089631971 0.0 0.0 0.0 16.28999089631971 0.0 0.0 0.0 34.35334932831803" Properties=species:S:1:pos:R:3:initial_magmoms:R:1 pbc="T T T"
Si       1.35690813      -1.35265644      -1.35991245       0.00000000
Si      -1.35270531      -1.33498179       1.38564312       0.00000000
Si      -1.35723393       1.36089918      -1.35864137       0.00000000
Si       1.34827443       1.35698958       1.37836021       0.00000000
Si       2.71457323      -2.70972747       0.00278262       0.00000000
Si      -2.71622718      -2.71067229       0.00103060       0.00000000
Si      -0.00011403      -2.71111212      -2.71635520       0.00000000
Si       2.71485736       0.00346977      -2.71652697       0.00000000
Si      -2.71539639       0.00361638      -2.71628650       0.00000000
Si       2.71391400       2.71940373       0.00666455       0.00000000
