10
Lattice="16.28999089631971 0.0 0.0 0.0 16.28999089631971 0.0 0.0 0.0 34.35334932831803" Properties=species:S:1:pos:R:3:initial_magmoms:R:1 pbc="T T T"
Si       1.02465877       1.62184869      -1.40862552       0.00000000
Si       0.05970285       1.51140249       1.98325432       0.00000000
Si      -1.84182885      -1.11801528      -1.27512833       0.00000000
Si       1.62556674      -2.00215503       0.25067653       0.00000000
Si      -0.01280394      -2.41372188       2.12496196       0.00000000
Si       2.27314311       0.19588725      -2.77509946       0.00000000
Si      -0.46703430      -2.52029106      -2.75558675       0.00000000
Si       2.49587628       2.82382263       0.00951588       0.00000000
Si      -2.30584950      -1.58298075       2.55815794       0.00000000
Si       3.55166702      -1.05746535      -1.15434189       0.00000000
