10
Lattice="16.28999089631971 0.0 0.0 0.0 16.28999089631971 0.0 0.0 0.0 34.35334932831803" Properties=species:S:1:pos:R:3:initial_magmoms:R:1 pbc="T T T"
Si       0.81777429       2.15998884      -0.44587237       0.00000000
Si      -2.14532784       0.54382536       0.80098314       0.00000000
Si       1.53763658      -0.70152885       1.78932955       0.00000000
Si      -0.05970285      -1.51140249      -1.98325432       0.00000000
Si      -2.01388383      -0.96260868       2.55224916       0.00000000
Si       2.43617343       1.31242014      -1.97373844       0.00000000
Si       0.96495592       0.11044620      -3.39187984       0.00000000
Si       0.42982794       3.18376647       1.82430128       0.00000000
Si      -1.84762809       2.59291188       1.92736139       0.00000000
Si       0.89510750      -2.97497754       2.09789151       0.00000000
