10
Lattice="16.28999089631971 0.0 0.0 0.0 16.28999089631971 0.0 0.0 0.0 34.35334932831803" Properties=species:S:1:pos:R:3:initial_magmoms:R:1 pbc="T T T"
Si       1.65371097      -0.79682535       1.42274476       0.00000000
Si      -0.24102684       2.29933350       0.25689449       0.00000000
Si      -2.01222225      -1.18583055       0.28022043       0.00000000
Si       1.06418141       0.08192241      -2.11245734       0.00000000
Si      -1.84480992       2.09429127      -1.65809969       0.00000000
Si       1.03893989      -3.09294972       1.41601150       0.00000000
Si      -3.36587238       0.57695922       1.11057570       0.00000000
Si       1.88402714       3.14225955      -0.20866236       0.00000000
Si      -1.34394129      -2.95834545       1.72460781       0.00000000
Si       3.70309886      -0.33301647       0.36376782       0.00000000
