10
Lattice="16.28999089631971 0.0 0.0 0.0 16.28999089631971 0.0 0.0 0.0 34.35334932831803" Properties=species:S:1:pos:R:3:initial_magmoms:R:1 pbc="T T T"
Si      -1.33156089       0.31333815      -1.90723031       0.00000000
Si       0.48443202      -2.22174423       0.59980981       0.00000000
Si      -1.48004424       0.70714890       1.74467017       0.00000000
Si       2.23647039       0.91215855      -0.26761274       0.00000000
Si       2.94402395       0.25821279       1.91025341       0.00000000
Si      -1.92674862       2.56445325      -1.46383139       0.00000000
Si       1.00971936      -3.15020907      -1.52635452       0.00000000
Si       1.91767509      -1.80765243       2.52456035       0.00000000
Si      -2.28815856       2.71785618       0.87518642       0.00000000
Si      -3.19189518      -1.14352542      -1.94075920       0.00000000
