10
Lattice="16.28999089631971 0.0 0.0 0.0 16.28999089631971 0.0 0.0 0.0 34.35334932831803" Properties=species:S:1:pos:R:3:initial_magmoms:R:1 pbc="T T T"
Si       1.63310738       0.07032393      -1.94093097       0.00000000
Si      -1.01077821      -1.73508048       1.56693413       0.00000000
Si       1.72091048       0.99852813       1.63164213       0.00000000
Si      -1.77530049       1.87936101       0.31156561       0.00000000
Si      -1.41986898      -0.41145282      -2.61535630       0.00000000
Si       1.47799400       2.64023433      -1.54706960       0.00000000
Si       0.32701504       2.31469497       2.98817421       0.00000000
Si      -2.39363631      -0.42557625       2.99030068       0.00000000
Si       3.18629861       2.26308825       0.23044240       0.00000000
Si      -2.36143098      -3.22944363       0.24411504       0.00000000
