10
Lattice="16.28999089631971 0.0 0.0 0.0 16.28999089631971 0.0 0.0 0.0 34.35334932831803" Properties=species:S:1:pos:R:3:initial_magmoms:R:1 pbc="T T T"
Si       0.17731665       0.78688845       2.21235693       0.00000000
Si      -0.64252908      -2.27344869       0.30856196       0.00000000
Si       2.18308806      -0.14861367      -0.96835275       0.00000000
Si      -1.53763658       0.70152885      -1.78932955       0.00000000
Si      -1.94773733      -0.05603760       2.67791378       0.00000000
Si       3.25052289       0.79884531       1.00050750       0.00000000
Si       0.21832347       3.10858812       1.87284259       0.00000000
Si      -3.55152041      -0.26107983       0.76291961       0.00000000
Si       2.25761481      -0.28354374       2.87517083       0.00000000
Si      -0.71986229       2.86151769      -2.23520192       0.00000000
