10
Lattice="16.28999089631971 0.0 0.0 0.0 16.28999089631971 0.0 0.0 0.0 34.35334932831803" Properties=species:S:1:pos:R:3:initial_magmoms:R:1 pbc="T T T"
Si      -2.18308806       0.14861367       0.96835275       0.00000000
Si       1.06743483       0.94745898       1.96886026       0.00000000
Si       0.38157696      -2.37798162      -0.49242118       0.00000000
Si       0.44918046       0.26557587      -2.60886351       0.00000000
Si       2.75742459      -1.89205092      -0.86869363       0.00000000
Si      -0.75989592      -3.25726695       1.48763827       0.00000000
Si      -2.82561714      -2.12483502       1.27691471       0.00000000
Si      -1.28455121       2.16256266      -2.79471524       0.00000000
Si       0.07452675      -0.13493007       3.84352358       0.00000000
Si       0.31226301       3.22269957       2.09682655       0.00000000
