10
Lattice="16.28999089631971 0.0 0.0 0.0 16.28999089631971 0.0 0.0 0.0 34.35334932831803" Properties=species:S:1:pos:R:3:initial_magmoms:R:1 pbc="T T T"
Si      -2.12325489      -0.93533922       0.49035998       0.00000000
Si       1.19669339      -1.49385816      -1.41772917       0.00000000
Si      -0.31157883       1.98711936      -1.28502210       0.00000000
Si       0.89046746      -0.06312375       2.22853737       0.00000000
Si      -1.28392893      -3.04399827       1.17014444       0.00000000
Si       0.17034453      -3.55972338      -0.80342223       0.00000000
Si       0.87880219       1.47320244      -3.29259861       0.00000000
Si      -1.06013691       0.34028181       3.55100464       0.00000000
Si       0.48913983      -0.83991240      -3.59559532       0.00000000
Si      -3.22737480      -1.04492205      -1.58331240       0.00000000
