10
Lattice="16.28999089631971 0.0 0.0 0.0 16.28999089631971 0.0 0.0 0.0 34.35334932831803" Properties=species:S:1:pos:R:3:initial_magmoms:R:1 pbc="T T T"
Si      -1.36056035       1.35366642      -1.35513733       0.00000000
Si       1.35703845       1.35610992       1.35733594       0.00000000
Si      -1.35850129      -1.35880917       1.35668323       0.00000000
Si       1.35521397      -1.36016613      -1.36087434       0.00000000
Si      -2.68404254      -0.00443088      -2.70397768       0.00000000
Si       2.71393029       2.71221984       0.00075577       0.00000000
Si      -2.71349765       2.71349046      -0.00085883       0.00000000
Si      -0.00076563       2.71375110       2.71494671       0.00000000
Si       2.71471221      -0.00206883       2.71401917       0.00000000
Si      -2.71565462      -0.00175932       2.71439706       0.00000000
