10
Lattice="16.28999089631971 0.0 0.0 0.0 16.28999089631971 0.0 0.0 0.0 34.35334932831803" Properties=species:S:1:pos:R:3:initial_magmoms:R:1 pbc="T T T"
Si      -2.13521012       0.28206135      -0.79404376       0.00000000
Si       0.26956692      -2.15620956       1.06041978       0.00000000
Si       0.94192038       0.29535399      -2.22967103       0.00000000
Si       0.85750560       1.92423996       1.29144618       0.00000000
Si      -2.66653470       0.42834555       1.48627208       0.00000000
Si       2.83677318       0.40055481       1.40807587       0.00000000
Si       1.49485185      -0.98513775       2.75656723       0.00000000
Si      -1.22523606       1.81420101       2.71935223       0.00000000
Si       1.44860454      -3.28333095      -0.71750446       0.00000000
Si       2.39055750      -1.74633687      -2.30627904       0.00000000
