10
Lattice="16.28999089631971 0.0 0.0 0.0 16.28999089631971 0.0 0.0 0.0 34.35334932831803" Properties=species:S:1:pos:R:3:initial_magmoms:R:1 pbc="T T T"
Si       1.24848433      -1.42596144      -1.36647394       0.00000000
Si       1.47121750       1.20197394       1.41814141       0.00000000
Si      -1.02465877      -1.62184869       1.40862552       0.00000000
Si      -1.48872829       1.29054267      -1.35431285       0.00000000
Si      -0.96495592      -0.11044620       3.39187984       0.00000000
Si      -0.14718163       2.04954264       2.94600747       0.00000000
Si       3.20494917      -0.69501285       1.60399313       0.00000000
Si       2.52700824      -2.67931404       0.25428363       0.00000000
Si       2.59319451      -0.06566499      -2.73459684       0.00000000
Si      -0.12308872       2.65295682      -2.72600850       0.00000000
