10
Lattice="16.28999089631971 0.0 0.0 0.0 16.28999089631971 0.0 0.0 0.0 34.35334932831803" Properties=species:S:1:pos:R:3:initial_magmoms:R:1 pbc="T T T"
Si       1.22077260      -1.38836412      -1.45555222       0.00000000
Si      -1.26032798      -1.47673737       1.33321988       0.00000000
Si       1.82301390       0.78278337       1.36891303       0.00000000
Si      -1.48084408       1.33908687      -1.43153922       0.00000000
Si       2.39019912      -2.71816569       0.10175468       0.00000000
Si       2.54057211       2.71964808       0.07629883       0.00000000
Si       0.47340369      -3.37372416       1.51907160       0.00000000
Si       2.57452047      -0.02616174      -2.81814423       0.00000000
Si      -2.73154548      -2.67871131      -0.08492153       0.00000000
Si      -0.13882338       2.68990254      -2.81821294       0.00000000
