10
Lattice="16.28999089631971 0.0 0.0 0.0 16.28999089631971 0.0 0.0 0.0 34.35334932831803" Properties=species:S:1:pos:R:3:initial_magmoms:R:1 pbc="T T T"
Si       0.62125173      -1.55191572       1.66101972       0.00000000
Si       0.89897994       2.17458468       0.17004917       0.00000000
Si       1.43721783      -0.70848468      -1.74532289       0.00000000
Si      -2.31887498      -0.16044021      -0.47462614       0.00000000
Si      -0.31431555       3.04087059      -1.66620708       0.00000000
Si       0.53727678      -3.49738155       0.30519533       0.00000000
Si       3.54577914       0.12647556      -1.03496393       0.00000000
Si       2.64034836      -0.67911381       2.53445412       0.00000000
Si       1.32023934      -3.03629310      -1.86342977       0.00000000
Si      -3.51556838       1.33341795       0.94310303       0.00000000
