10
Lattice="16.28999089631971 0.0 0.0 0.0 16.28999089631971 0.0 0.0 0.0 34.35334932831803" Properties=species:S:1:pos:R:3:initial_magmoms:R:1 pbc="T T T"
Si      -1.35117003      -1.32947577      -1.36393179       0.00000000
Si       1.35834328      -1.35451350       1.35953456       0.00000000
Si      -1.35424213       1.36202319       1.35871008       0.00000000
Si       1.36593442       1.37472939      -1.39167214       0.00000000
Si       0.04272541      -2.64564261      -2.72046387       0.00000000
Si       2.71855828      -2.70720252       0.00188944       0.00000000
Si      -2.71532050      -2.71101438       0.00024047       0.00000000
Si      -2.59909135       0.13981707      -2.81979663       0.00000000
Si       0.00126573      -2.71088406       2.71693921       0.00000000
Si      -2.71317022       0.00423540       2.71618344       0.00000000
