10
Lattice="16.28999089631971 0.0 0.0 0.0 16.28999089631971 0.0 0.0 0.0 34.35334932831803" Properties=species:S:1:pos:R:3:initial_magmoms:R:1 pbc="T T T"
Si      -0.38966236      -2.31311484      -0.30299671       0.00000000
Si      -1.19038102       0.51391692       2.00757650       0.00000000
Si      -0.70831105       1.15971768      -2.00366022       0.00000000
Si       2.32245064       0.23425020       0.68328850       0.00000000
Si       0.31789121      -2.96706060       1.87486944       0.00000000
Si      -0.87880219      -1.47320244       3.29259861       0.00000000
Si       2.67149647       2.52045396       0.92472397       0.00000000
Si      -3.13208386       1.26825795      -1.84487895       0.00000000
Si       0.62465308       3.23267135      -2.18404976       0.00000000
Si      -3.44677408       1.10938158       1.63772814       0.00000000
