10
Lattice="10.86 0.0 0.0 0.0 10.86 0.0 0.0 0.0 10.86" Properties=species:S:1:pos:R:3:initial_magmoms:R:1 pbc="T T T"
Si       1.36010640       1.10693808       1.26154104       0.00000000
Si      -1.35489360      -1.60806192       1.26154104       0.00000000
Si       1.36010640      -1.60806192      -1.45345896       0.00000000
Si      -0.04605726       2.57176746       2.43207528       0.00000000
Si       2.71760640       2.46443808      -0.09595896       0.00000000
Si      -2.55963684      -0.27316158      -2.68729614       0.00000000
Si       2.71760640      -0.25056192       2.61904104       0.00000000
Si      -0.13874736       2.60978832      -2.74245408       0.00000000
Si       2.71760640      -0.25056192      -2.81095896       0.00000000
Si       0.00260640      -2.96556192       2.61904104       0.00000000
