10
Lattice="10.86 0.0 0.0 0.0 10.86 0.0 0.0 0.0 10.86" Properties=species:S:1:pos:R:3:initial_magmoms:R:1 pbc="T T T"
Si      -1.21192170       1.33196814       1.11674466       0.00000000
Si      -1.25138694      -1.39479324      -1.58754738       0.00000000
Si       1.57131168       1.40910672      -1.61659788       0.00000000
Si      -2.48492004      -0.04929354       2.34862704       0.00000000
Si      -0.20497164      -2.62410180       2.37769926       0.00000000
Si       0.23007996       2.66570646       2.34862704       0.00000000
Si      -2.48492004       2.66570646      -0.36637296       0.00000000
Si      -2.48492004      -2.76429354      -0.36637296       0.00000000
Si      -2.48492004      -0.04929354      -3.08137296       0.00000000
Si       2.94507996       2.66570646      -0.36637296       0.00000000
