10
Lattice="10.86 0.0 0.0 0.0 10.86 0.0 0.0 0.0 10.86" Properties=species:S:1:pos:R:3:initial_magmoms:R:1 pbc="T T T"
Si       1.09163634      -1.51657728      -1.41431952       0.00000000
Si      -1.62336366       1.19842272      -1.41431952       0.00000000
Si      -1.62336366      -1.51657728       1.30068048       0.00000000
Si       2.42106324      -0.16889472       2.59271640       0.00000000
Si       2.39232768      -0.18810606      -2.73539508       0.00000000
Si      -0.37891626       2.52351648       2.60277276       0.00000000
Si       2.51828196       2.79905640      -0.21988242       0.00000000
Si       2.44913634      -2.87407728      -0.05681952       0.00000000
Si      -0.26586366      -2.87407728       2.65818048       0.00000000
Si      -2.98086366       2.55592272      -0.05681952       0.00000000
