10
Lattice="10.86 0.0 0.0 0.0 10.86 0.0 0.0 0.0 10.86" Properties=species:S:1:pos:R:3:initial_magmoms:R:1 pbc="T T T"
Si       1.38557310      -1.34768256      -1.29203592       0.00000000
Si      -1.32942690      -1.34768256       1.42296408       0.00000000
Si       1.38557310       1.36731744       1.42296408       0.00000000
Si      -2.42106324       0.16889472      -2.59271640       0.00000000
Si       2.84309370       0.00571236      -2.45950764       0.00000000
Si       2.85202062       2.47174686       0.23363118       0.00000000
Si       0.02807310      -2.70518256      -2.64953592       0.00000000
Si      -2.68692690      -2.70518256       0.06546408       0.00000000
Si       2.74307310      -2.70518256       0.06546408       0.00000000
Si      -2.68692690       0.00981744       2.78046408       0.00000000
