10
Lattice="10.86 0.0 0.0 0.0 10.86 0.0 0.0 0.0 10.86" Properties=species:S:1:pos:R:3:initial_magmoms:R:1 pbc="T T T"
Si      -1.28115420       1.20235404      -1.22050110       0.00000000
Si       1.37157456       1.39169814       1.41251676       0.00000000
Si       1.43384580      -1.51264596      -1.22050110       0.00000000
Si      -1.28115420      -1.51264596       1.49449890       0.00000000
Si       0.07634580       2.55985404      -2.57800110       0.00000000
Si      -2.63865420       2.55985404       0.13699890       0.00000000
Si      -2.63865420      -0.15514596      -2.57800110       0.00000000
Si       2.79134580      -0.15514596      -2.57800110       0.00000000
Si       0.07634580      -2.87014596      -2.57800110       0.00000000
Si      -2.63865420      -0.15514596       2.85199890       0.00000000
