10
Lattice="10.86 0.0 0.0 0.0 10.86 0.0 0.0 0.0 10.86" Properties=species:S:1:pos:R:3:initial_magmoms:R:1 pbc="T T T"
Si       1.42125906       1.33526958      -1.24759680       0.00000000
Si      -1.32854724       1.19208048       1.52150772       0.00000000
Si       1.48891686      -1.30371042       1.27641924       0.00000000
Si      -1.37157456      -1.39169814      -1.41251676       0.00000000
Si       0.06227124       2.52565590      -2.63301786       0.00000000
Si      -2.65272876       2.52565590       0.08198214       0.00000000
Si      -2.65272876      -0.18934410      -2.63301786       0.00000000
Si       2.77727124       2.52565590       0.08198214       0.00000000
Si       0.06227124       2.52565590       2.79698214       0.00000000
Si       2.77727124      -0.18934410      -2.63301786       0.00000000
