10
Lattice="10.86 0.0 0.0 0.0 10.86 0.0 0.0 0.0 10.86" Properties=species:S:1:pos:R:3:initial_magmoms:R:1 pbc="T T T"
Si       1.17972180      -1.50005922      -1.20812070       0.00000000
Si       1.17972180       1.21494078       1.50687930       0.00000000
Si      -1.53527820       1.21494078      -1.20812070       0.00000000
Si       2.53722180      -0.14255922      -2.56562070       0.00000000
Si       2.53722180       2.57244078       0.14937930       0.00000000
Si      -0.17777820       2.57244078      -2.56562070       0.00000000
Si      -0.30828282       2.60796384       2.74786236       0.00000000
Si       2.53722180      -2.85755922       0.14937930       0.00000000
Si       2.53722180      -0.14255922       2.86437930       0.00000000
Si      -0.17777820      -2.85755922      -2.56562070       0.00000000
