10
Lattice="10.86 0.0 0.0 0.0 10.86 0.0 0.0 0.0 10.86" Properties=species:S:1:pos:R:3:initial_magmoms:R:1 pbc="T T T"
Si      -1.48891686       1.30371042      -1.27641924       0.00000000
Si       2.51534976       2.50738938       0.04654596       0.00000000
Si      -0.06765780       2.63898000      -2.52401604       0.00000000
Si      -2.51828196      -2.79905640       0.21988242       0.00000000
Si      -2.81746410       2.49579090       0.24508848       0.00000000
Si      -0.15790440       2.52464592       2.91504120       0.00000000
Si      -0.12595428      -2.98716246      -2.51551266       0.00000000
Si       2.82363258      -0.10057446      -2.70131640       0.00000000
Si      -2.86049142      -0.08798772      -2.68893600       0.00000000
Si      -2.89719822      -0.27553992       2.82265518       0.00000000
