10
Lattice="16.28999089631971 0.0 0.0 0.0 16.28999089631971 0.0 0.0 0.0 34.385447050020396" Properties=species:S:1:pos:R:3:initial_magmoms:R:1 pbc="T T T"
Si       1.10877885      -1.41875228       1.54499745       0.00000000
Si      -1.05174756      -1.49955707      -1.61716709       0.00000000
Si       1.64871090       1.21636778      -1.39930077       0.00000000
Si      -1.59472584       1.29464123       1.52512609       0.00000000
Si       2.55489102      -2.80272449       0.25579005       0.00000000
Si       2.45584782      -0.05730170       2.91368343       0.00000000
Si       2.68201818       2.79688874       0.08645882       0.00000000
Si      -0.25679556       2.65627346       2.90945402       0.00000000
Si      -0.26275770      -2.77004675       2.91010734       0.00000000
Si      -3.24757440       2.42567222       0.22769368       0.00000000
