10
Lattice="16.28999089631971 0.0 0.0 0.0 16.28999089631971 0.0 0.0 0.0 34.385447050020396" Properties=species:S:1:pos:R:3:initial_magmoms:R:1 pbc="T T T"
Si       1.92086793       0.97239897      -1.15105348       0.00000000
Si      -0.80756046      -1.84740557      -1.38459957       0.00000000
Si      -1.73011203       1.89245817       0.10680126       0.00000000
Si      -2.08797075      -0.49951656      -2.76507288       0.00000000
Si       2.85389397       0.37089072       2.13193329       0.00000000
Si       0.66609810       2.21133492      -2.75878034       0.00000000
Si      -3.46638887       0.89204040      -1.29925484       0.00000000
Si      -1.18278432      -2.59394534       2.68045025       0.00000000
Si      -0.74653812       3.56369814      -1.49002541       0.00000000
Si      -2.08172191      -3.35405303      -0.16553163       0.00000000
