10
Lattice="16.28999089631971 0.0 0.0 0.0 16.28999089631971 0.0 0.0 0.0 34.385447050020396" Properties=species:S:1:pos:R:3:initial_magmoms:R:1 pbc="T T T"
Si       1.46592081      -1.57901576      -0.91709477       0.00000000
Si      -0.74808567       1.28011707      -1.81813153       0.00000000
Si      -1.87095537      -1.47727494       0.00333539       0.00000000
Si       0.49348926       1.51891218       1.79340838       0.00000000
Si      -0.00420282       0.03186324       3.56855807       0.00000000
Si      -2.26290906       2.71733490      -0.72563649       0.00000000
Si      -0.76533678       3.40728156       1.08830001       0.00000000
Si       0.54490050      -3.66085889      -0.32958469       0.00000000
Si       1.37766159      -1.18465767      -3.25833240       0.00000000
Si      -1.42237764      -3.27387365      -1.44577131       0.00000000
