10
Lattice="16.28999089631971 0.0 0.0 0.0 16.28999089631971 0.0 0.0 0.0 34.385447050020396" Properties=species:S:1:pos:R:3:initial_magmoms:R:1 pbc="T T T"
Si       0.49769208       1.48704894      -1.77514970       0.00000000
Si       0.63995265       0.65306610       2.20111685       0.00000000
Si      -2.29980591      -0.68419629      -0.24042318       0.00000000
Si       1.38352599      -1.98868646      -0.27852228       0.00000000
Si       0.00420282      -0.03186324      -3.56855807       0.00000000
Si      -2.02543344      -2.66948628      -1.48741211       0.00000000
Si       2.94964659       1.16561466       2.00133729       0.00000000
Si       0.23092704      -1.48499640       3.46416380       0.00000000
Si       1.42244280      -2.92067320       1.96770831       0.00000000
Si       3.73963014       0.70017678      -0.19613470       0.00000000
