10
Lattice="16.28999089631971 0.0 0.0 0.0 16.28999089631971 0.0 0.0 0.0 34.385447050020396" Properties=species:S:1:pos:R:3:initial_magmoms:R:1 pbc="T T T"
Si       1.36010097       1.34498385      -1.35310592       0.00000000
Si       1.35482301      -1.35617508       1.35303371       0.00000000
Si      -1.36215351      -1.35881406      -1.35268642       0.00000000
Si      -1.36169739       1.35690813       1.35509684       0.00000000
Si       2.48007105      -0.13598892      -2.82241753       0.00000000
Si      -2.54780161       0.09596439      -2.76389002       0.00000000
Si      -2.71200155       2.70572013      -0.00089402       0.00000000
Si       2.71174743      -0.00039096       2.71084700       0.00000000
Si      -0.00267156       2.71298547       2.71119086       0.00000000
Si      -0.00294849      -2.71534752       2.71098455       0.00000000
