10
Lattice="16.28999089631971 0.0 0.0 0.0 16.28999089631971 0.0 0.0 0.0 34.385447050020396" Properties=species:S:1:pos:R:3:initial_magmoms:R:1 pbc="T T T"
Si      -1.35713619      -1.35793440      -1.35671296       0.00000000
Si       1.35769005       1.35754344      -1.35695366       0.00000000
Si      -1.35534429       1.36001952       1.35877608       0.00000000
Si       1.35741312      -1.35993807       1.36025466       0.00000000
Si       0.00522909       2.71731861       2.68708665       0.00000000
Si       0.00042354       2.71345788      -2.71390731       0.00000000
Si      -2.71475131      -0.00014661      -2.71270382       0.00000000
Si       0.00014661      -2.71487511      -2.71411362       0.00000000
Si       2.71484253       0.00008145      -2.71425117       0.00000000
Si      -2.71418441       2.71575477      -0.00044701       0.00000000
