10
Lattice="16.28999089631971 0.0 0.0 0.0 16.28999089631971 0.0 0.0 0.0 34.385447050020396" Properties=species:S:1:pos:R:3:initial_magmoms:R:1 pbc="T T T"
Si       1.25882604      -1.88836938       0.70510837       0.00000000
Si       1.33131654       1.37560905      -1.42981646       0.00000000
Si      -1.73240892       1.18547217       1.20569199       0.00000000
Si      -1.49757228      -0.68994666      -1.81393650       0.00000000
Si       0.28961991       1.51321068       2.15314913       0.00000000
Si       0.01725111      -2.12716449      -2.90643154       0.00000000
Si       0.76533678      -3.40728156      -1.08830001       0.00000000
Si       3.46708215      -0.98637579       1.02716265       0.00000000
Si      -3.33396190      -0.43794036       1.90691480       0.00000000
Si      -2.10336480       1.26371304      -3.04882175       0.00000000
