10
Lattice="16.28999089631971 0.0 0.0 0.0 16.28999089631971 0.0 0.0 0.0 34.385447050020396" Properties=species:S:1:pos:R:3:initial_magmoms:R:1 pbc="T T T"
Si       1.34472321      -1.55468502      -1.19620160       0.00000000
Si       0.13559796       2.11730904      -1.38391186       0.00000000
Si       0.27745128       0.41117589       2.50333072       0.00000000
Si      -2.30234715      -0.99059490      -0.57856986       0.00000000
Si      -1.57460769       3.16143288       0.03727385       0.00000000
Si      -1.18755729       2.43067977       2.56897257       0.00000000
Si       0.93569760      -3.69274752       0.06684535       0.00000000
Si       3.65441715      -1.04213646      -1.39598116       0.00000000
Si       2.04002928       3.46685409      -0.73602091       0.00000000
Si       0.70477056      -2.20775112      -3.39731845       0.00000000
