10
Lattice="16.28999089631971 0.0 0.0 0.0 16.28999089631971 0.0 0.0 0.0 34.385447050020396" Properties=species:S:1:pos:R:3:initial_magmoms:R:1 pbc="T T T"
Si      -1.24395327       1.38754962      -1.39509745       0.00000000
Si      -1.36112724      -1.34866539       1.35512435       0.00000000
Si       1.35314514       1.36474362       1.35749695       0.00000000
Si       1.30440546      -1.35500220      -1.43813086       0.00000000
Si      -2.10826809      -0.52075872      -2.73218804       0.00000000
Si       0.61310673       2.26821960      -2.58736329       0.00000000
Si       2.26528740       0.32242797      -2.83300623       0.00000000
Si      -0.48027807      -2.44890828      -2.82007729       0.00000000
Si      -0.00513135      -2.70262503       2.71331588       0.00000000
Si       2.70932022       0.01264104       2.71304080       0.00000000
