10
Lattice="16.28999089631971 0.0 0.0 0.0 16.28999089631971 0.0 0.0 0.0 34.385447050020396" Properties=species:S:1:pos:R:3:initial_magmoms:R:1 pbc="T T T"
Si       0.30350225       0.10203730       2.31861199       0.00000000
Si      -1.93061002      -1.29704468      -0.35031913       0.00000000
Si       1.66935685      -1.48196876      -0.82229404       0.00000000
Si       0.13431920       2.33063148      -0.69805935       0.00000000
Si      -2.72223886      -0.21686812      -2.27662734       0.00000000
Si       1.40463131       2.20659942       2.61996622       0.00000000
Si       1.69768516      -1.80327272       2.79784223       0.00000000
Si      -1.79056489       0.52064632       3.26345583       0.00000000
Si       3.69744556      -0.70864988       0.20700051       0.00000000
Si       2.05715659      -1.02949772      -3.03864365       0.00000000
