10
Lattice="16.28999089631971 0.0 0.0 0.0 16.28999089631971 0.0 0.0 0.0 34.385447050020396" Properties=species:S:1:pos:R:3:initial_magmoms:R:1 pbc="T T T"
Si      -1.35637056      -1.35524655       1.35905117       0.00000000
Si       1.36055709      -1.35466011      -1.35609402       0.00000000
Si       1.35871632       1.36093176       1.35843223       0.00000000
Si      -1.35645201       1.36407573      -1.36111430       0.00000000
Si       2.71655298      -2.70861975       0.00209751       0.00000000
Si      -2.71539639      -2.71132389       0.00295715       0.00000000
Si       0.00089595      -2.71116099       2.71600482       0.00000000
Si       0.00640197      -2.72324817      -2.70524561       0.00000000
Si      -2.71378368       0.00342090       2.71597044       0.00000000
Si       2.71533123       0.00400734       2.71576413       0.00000000
