10
Lattice="16.28999089631971 0.0 0.0 0.0 16.28999089631971 0.0 0.0 0.0 34.385447050020396" Properties=species:S:1:pos:R:3:initial_magmoms:R:1 pbc="T T T"
Si      -1.74796587      -0.77175504      -1.40110459       0.00000000
Si       1.86562854      -1.51796736       0.18073001       0.00000000
Si      -1.68870285       0.27313443       1.70087709       0.00000000
Si       0.88627374       1.90259055      -1.23787679       0.00000000
Si      -1.33582887       2.51328636       1.27858918       0.00000000
Si      -0.31144851      -2.00686284      -2.70452008       0.00000000
Si       1.32318783      -1.89185544       2.70974667       0.00000000
Si       1.03348647      -3.24322497      -1.25916139       0.00000000
Si       2.39477661       0.70998336      -2.66305121       0.00000000
Si      -2.73230541      -2.52773559      -0.19242107       0.00000000
