10
Lattice="16.28999089631971 0.0 0.0 0.0 16.28999089631971 0.0 0.0 0.0 34.385447050020396" Properties=species:S:1:pos:R:3:initial_magmoms:R:1 pbc="T T T"
Si      -1.67284942       0.83061081      -1.37806633       0.00000000
Si       0.44857773      -1.79659871      -1.44910670       0.00000000
Si       1.87095537       1.47727494      -0.00333539       0.00000000
Si      -0.15868089      -1.16034810       2.07781057       0.00000000
Si       2.41585587      -2.18358395      -0.33292008       0.00000000
Si      -0.43305336       0.82494189       3.32479950       0.00000000
Si       3.33687618      -0.10174082      -0.92043016       0.00000000
Si      -2.77397849      -1.27395130      -1.67942056       0.00000000
Si       1.12286970       2.75739201      -1.82146692       0.00000000
Si       2.04687108      -2.06191394       1.99036833       0.00000000
