10
Lattice="16.28999089631971 0.0 0.0 0.0 16.28999089631971 0.0 0.0 0.0 34.385447050020396" Properties=species:S:1:pos:R:3:initial_magmoms:R:1 pbc="T T T"
Si       1.35457866       1.33444422       1.37094854       0.00000000
Si      -1.35620766       1.35335691      -1.35685050       0.00000000
Si       1.35681039      -1.35866745      -1.35678173       0.00000000
Si      -1.36070370      -1.35542574       1.37115485       0.00000000
Si      -2.71062342       2.71269608       0.00832128       0.00000000
Si       0.00061902       2.71255495      -2.71411362       0.00000000
Si      -2.71422351      -0.00239463      -2.71459502       0.00000000
Si       2.71502172      -0.00162900      -2.71456063       0.00000000
Si       2.71718829       2.71386513       0.00299154       0.00000000
Si      -0.00003258      -2.71687878      -2.71459502       0.00000000
