10
Lattice="16.28999089631971 0.0 0.0 0.0 16.28999089631971 0.0 0.0 0.0 34.385447050020396" Properties=species:S:1:pos:R:3:initial_magmoms:R:1 pbc="T T T"
Si       1.35721764      -1.35666378       1.35557824       0.00000000
Si      -1.35754344      -1.35677781      -1.35719435       0.00000000
Si      -1.35584928       1.36037790       1.35654103       0.00000000
Si       1.35738054       1.35829278      -1.35740067       0.00000000
Si       0.00467523      -2.71158453       2.68688033       0.00000000
Si      -2.70930882      -0.00439830       2.69795245       0.00000000
Si      -2.71473827      -2.71314837      -0.00065332       0.00000000
Si       2.71505430      -2.71344159       0.00085964       0.00000000
Si       2.71539639       2.71404432       0.00034385       0.00000000
Si      -0.00013032      -2.71544526      -2.71411362       0.00000000
