10
Lattice="16.28999089631971 0.0 0.0 0.0 16.28999089631971 0.0 0.0 0.0 34.385447050020396" Properties=species:S:1:pos:R:3:initial_magmoms:R:1 pbc="T T T"
Si      -0.44626455       2.02486329       1.04091683       0.00000000
Si       2.12786496      -0.38221227       1.00037637       0.00000000
Si      -1.81253943      -1.56535497      -0.02479192       0.00000000
Si      -0.23910462       0.78382593      -2.30069716       0.00000000
Si      -2.41354269       2.41184853      -0.07526979       0.00000000
Si       3.06046746      -1.84770954      -0.49339706       0.00000000
Si       1.25525853      -3.34642212      -0.52372504       0.00000000
Si      -0.88278768      -3.16604295      -1.51877166       0.00000000
Si       3.20585571       1.64967201       0.64369593       0.00000000
Si       3.03759630       1.56512691      -1.79261751       0.00000000
