10
Lattice="16.28999089631971 0.0 0.0 0.0 16.28999089631971 0.0 0.0 0.0 34.385447050020396" Properties=species:S:1:pos:R:3:initial_magmoms:R:1 pbc="T T T"
Si       1.35711990       1.35796698       1.35660980       0.00000000
Si       1.35747828      -1.35686252      -1.35822592       0.00000000
Si      -1.35770634      -1.35794254       1.35750382       0.00000000
Si      -1.35516510       1.35671265      -1.36245533       0.00000000
Si      -2.71591767      -2.71246657       0.00209751       0.00000000
Si      -0.00026064      -2.71435171       2.71449186       0.00000000
Si       2.71500543      -2.71398012       0.00044701       0.00000000
Si       2.71507059       0.00068418       2.71435432       0.00000000
Si       2.71461447       2.71508688      -0.00144419       0.00000000
Si      -0.00024435       2.71586880       2.71421678       0.00000000
