10
Lattice="16.28999089631971 0.0 0.0 0.0 16.28999089631971 0.0 0.0 0.0 34.385447050020396" Properties=species:S:1:pos:R:3:initial_magmoms:R:1 pbc="T T T"
Si       1.35697329       1.35705244       1.35650664       0.00000000
Si      -1.35765747      -1.35745193       1.35605963       0.00000000
Si      -1.35752715       1.35711760      -1.35867293       0.00000000
Si       1.35835794      -1.36017236      -1.35918871       0.00000000
Si       2.71402803       0.00018606       2.71352907       0.00000000
Si      -0.00086337      -2.71455554       2.71359784       0.00000000
Si       0.00006516       2.71466430       2.71390731       0.00000000
Si      -2.71500543       2.71398012      -0.00044701       0.00000000
Si      -2.71303434      -2.71600535      -0.00024070       0.00000000
Si      -2.71526607      -0.00037159       2.71404485       0.00000000
