10
Lattice="16.28999089631971 0.0 0.0 0.0 16.28999089631971 0.0 0.0 0.0 34.385447050020396" Properties=species:S:1:pos:R:3:initial_magmoms:R:1 pbc="T T T"
Si       1.35690813      -1.35761186      -1.35740067       0.00000000
Si      -1.35795069       1.35728280      -1.35774452       0.00000000
Si      -1.35739683      -1.35786272       1.35808838       0.00000000
Si       1.35843939       1.35959598       1.35681611       0.00000000
Si       2.71396287      -2.71447824      -0.00037824       0.00000000
Si       2.71243161      -0.00091224       2.71603921       0.00000000
Si      -0.00006516      -2.71466430      -2.71390731       0.00000000
Si       2.71445157       2.71480995       0.00000000       0.00000000
Si      -2.71507059      -0.00068418      -2.71435432       0.00000000
Si       0.00351864       2.71274112       2.71713954       0.00000000
