10
Lattice="16.28999089631971 0.0 0.0 0.0 16.28999089631971 0.0 0.0 0.0 34.385447050020396" Properties=species:S:1:pos:R:3:initial_magmoms:R:1 pbc="T T T"
Si      -1.35793440      -1.35717316      -1.35795083       0.00000000
Si       1.35739683       1.35786272      -1.35808838       0.00000000
Si       1.35863487      -1.35586298       1.35915433       0.00000000
Si      -1.36104579       1.35799304       1.36207709       0.00000000
Si       2.71396287      -2.71413947      -0.00103156       0.00000000
Si       2.71430496       0.00025087      -2.71548904       0.00000000
Si      -0.00032580      -2.71425350      -2.71593605       0.00000000
Si      -2.71538010      -0.00076400      -2.71493887       0.00000000
Si      -0.00055386       2.71514552      -2.71583290       0.00000000
Si      -2.71476108      -2.71637120      -0.00068771       0.00000000
