10
Lattice="16.28999089631971 0.0 0.0 0.0 16.28999089631971 0.0 0.0 0.0 34.385447050020396" Properties=species:S:1:pos:R:3:initial_magmoms:R:1 pbc="T T T"
Si       0.19769544       2.15583489       0.94487823       0.00000000
Si      -2.15840871      -0.53302835       0.86249065       0.00000000
Si       1.93793985      -0.95645432       1.02234868       0.00000000
Si       0.00513135      -0.47969163      -2.37827077       0.00000000
Si       3.48101010      -0.91385108      -0.76500785       0.00000000
Si       1.01962368      -2.88504764       2.11061430       0.00000000
Si       2.46272220       2.54668086       1.33088947       0.00000000
Si      -2.07181107      -0.15522089      -3.34463992       0.00000000
Si      -0.83598651       3.84470064      -0.31208249       0.00000000
Si      -3.36181617      -2.11539401      -0.43384143       0.00000000
