10
Lattice="16.28999089631971 0.0 0.0 0.0 16.28999089631971 0.0 0.0 0.0 34.385447050020396" Properties=species:S:1:pos:R:3:initial_magmoms:R:1 pbc="T T T"
Si       1.34695494       1.35329175       1.36025466       0.00000000
Si       1.35492075      -1.35314514      -1.36032343       0.00000000
Si      -1.36115982       1.35987291      -1.35967011       0.00000000
Si      -1.34798121      -1.36195803       1.37779125       0.00000000
Si      -2.50408251       0.13737357       2.80502880       0.00000000
Si       2.70891297      -2.71365336      -0.00110033       0.00000000
Si       2.71093293       0.00206883      -2.71713954       0.00000000
Si       2.71129131       2.71769328      -0.00092841       0.00000000
Si      -0.00351864      -2.71274112      -2.71713954       0.00000000
Si      -0.00366525       2.71700910      -2.71734586       0.00000000
