10
Lattice="16.28999089631971 0.0 0.0 0.0 16.28999089631971 0.0 0.0 0.0 34.385447050020396" Properties=species:S:1:pos:R:3:initial_magmoms:R:1 pbc="T T T"
Si       1.13021649       1.30807071      -1.58200653       0.00000000
Si       2.03198202      -0.84023820       0.96492495       0.00000000
Si      -1.48665798      -1.31753520      -1.59503862       0.00000000
Si       0.27837981       2.98294335       1.21260347       0.00000000
Si       3.03725421       2.20079529      -0.41798973       0.00000000
Si      -3.32333919      -0.77815701       1.68031458       0.00000000
Si       2.36437947      -0.10161702      -3.03981276       0.00000000
Si      -2.92915377      -2.64463263      -0.24341472       0.00000000
Si      -0.34603218       2.62150083      -3.00941601       0.00000000
Si      -2.18227356      -2.80622943       2.06666968       0.00000000
