10
Lattice="16.28999089631971 0.0 0.0 0.0 16.28999089631971 0.0 0.0 0.0 34.385447050020396" Properties=species:S:1:pos:R:3:initial_magmoms:R:1 pbc="T T T"
Si       2.16782433       0.82209114      -0.03768647       0.00000000
Si      -0.08622297      -1.69308486      -1.60263781       0.00000000
Si      -2.25453600       0.63716706       0.22171749       0.00000000
Si      -0.11798847      -1.12487337       2.11233358       0.00000000
Si      -3.14123328      -1.61849295       0.20882294       0.00000000
Si      -2.63591748       1.59954768      -1.90925301       0.00000000
Si       3.44404809      -1.17413433       0.28192644       0.00000000
Si      -2.35124973      -2.08393083      -1.98864906       0.00000000
Si      -2.05985421      -2.35361178       2.07739794       0.00000000
Si       0.77682123      -3.70051785      -0.65349579       0.00000000
