10
Lattice="16.28999089631971 0.0 0.0 0.0 16.28999089631971 0.0 0.0 0.0 34.385447050020396" Properties=species:S:1:pos:R:3:initial_magmoms:R:1 pbc="T T T"
Si       2.25453600      -0.63716706      -0.22171749       0.00000000
Si      -0.38138148       0.96238062      -2.13097050       0.00000000
Si      -0.88669728      -2.25566001      -0.01289455       0.00000000
Si      -0.36574308       1.74788442       1.73725691       0.00000000
Si       2.13654753      -1.76204043       1.89061609       0.00000000
Si      -2.50108515       2.25333054       0.64706570       0.00000000
Si      -0.09671373      -2.72109789      -2.21036654       0.00000000
Si       0.19468179      -2.99077884       1.85568046       0.00000000
Si      -1.48649508       2.99672469      -1.36338374       0.00000000
Si       2.16831303      -2.33025192      -1.82435530       0.00000000
