10
Lattice="16.28999089631971 0.0 0.0 0.0 16.28999089631971 0.0 0.0 0.0 34.385447050020396" Properties=species:S:1:pos:R:3:initial_magmoms:R:1 pbc="T T T"
Si      -1.94186574      -1.22873841      -0.03493563       0.00000000
Si       0.50023332       0.24397533       2.29087809       0.00000000
Si       0.11798847       1.12487337      -2.11233358       0.00000000
Si       0.54376020      -2.38912398      -0.29795007       0.00000000
Si      -2.13654753       1.76204043      -1.89061609       0.00000000
Si       2.08805220      -1.56802653       2.14867902       0.00000000
Si      -3.02324481      -0.49361958      -1.90351064       0.00000000
Si       2.28581280       1.94696451      -2.15002005       0.00000000
Si       0.03176550      -0.56821149      -3.71497139       0.00000000
Si      -1.37033109      -0.63320859       3.46113585       0.00000000
