10
Lattice="16.28999089631971 0.0 0.0 0.0 16.28999089631971 0.0 0.0 0.0 34.385447050020396" Properties=species:S:1:pos:R:3:initial_magmoms:R:1 pbc="T T T"
Si       0.83797389       1.78328259       1.28421602       0.00000000
Si      -1.85706000      -0.88066998       1.19226584       0.00000000
Si      -1.25983602       1.23445620      -1.60761687       0.00000000
Si       1.65218067      -1.94579163      -0.24564293       0.00000000
Si       2.12978718       0.42261147       2.60075299       0.00000000
Si      -0.61310673      -2.26821960       2.58736329       0.00000000
Si       3.42213804      -0.88218495       1.02983234       0.00000000
Si       2.47660128       2.84522769      -0.04586609       0.00000000
Si      -2.11623390      -0.40138560      -3.17212120       0.00000000
Si       0.69129873      -3.62322180       1.14923243       0.00000000
