10
Lattice="16.28999089631971 0.0 0.0 0.0 16.28999089631971 0.0 0.0 0.0 34.385447050020396" Properties=species:S:1:pos:R:3:initial_magmoms:R:1 pbc="T T T"
Si       1.29181329      -1.36067112       1.31653698       0.00000000
Si      -0.83797389      -1.78328259      -1.28421602       0.00000000
Si       1.63862739       1.06194510      -1.33008210       0.00000000
Si      -1.44611217       1.38397221       1.28920741       0.00000000
Si      -2.09780991      -0.54882639      -2.89183288       0.00000000
Si       2.58416415      -2.66546754      -0.25438368       0.00000000
Si       2.61684189       0.02813283       2.65737760       0.00000000
Si       3.34283832      -0.73876779      -1.58511639       0.00000000
Si      -0.09793548      -2.68675857       2.66064422       0.00000000
Si      -2.69503389      -2.66395257      -0.09195018       0.00000000
