10
Lattice="16.28999089631971 0.0 0.0 0.0 16.28999089631971 0.0 0.0 0.0 34.385447050020396" Properties=species:S:1:pos:R:3:initial_magmoms:R:1 pbc="T T T"
Si      -1.08615204       1.58904063       1.33763590       0.00000000
Si       1.65284856      -1.13103099       1.29743241       0.00000000
Si      -1.80196722      -1.93350897       0.14106638       0.00000000
Si       0.89971299       1.96411788      -1.60656949       0.00000000
Si      -2.45054542       0.24114087       2.69276369       0.00000000
Si       0.28307133      -2.49337998       2.68898129       0.00000000
Si      -2.27180014       3.04381908      -0.07356771       0.00000000
Si       2.75607252       2.81186577      -0.13209521       0.00000000
Si      -2.27464438      -2.46517059      -2.17344828       0.00000000
Si       0.27600147       2.94785469       2.69032232       0.00000000
