10
Lattice="16.28999089631971 0.0 0.0 0.0 16.28999089631971 0.0 0.0 0.0 34.385447050020396" Properties=species:S:1:pos:R:3:initial_magmoms:R:1 pbc="T T T"
Si      -1.55584717      -1.16854686       1.32803445       0.00000000
Si       1.25568696       1.55290941       1.25722789       0.00000000
Si      -0.99840337       1.56289518      -1.46255387       0.00000000
Si       0.52578419      -1.80530667      -1.51530117       0.00000000
Si      -1.71628738      -1.17485109      -1.81878730       0.00000000
Si       2.44133506       0.09813096       2.66843150       0.00000000
Si      -0.25130567      -2.61767268       2.64760766       0.00000000
Si      -0.26629742       2.82589146       2.63929669       0.00000000
Si       2.96219152       2.49271209      -0.21013203       0.00000000
Si       1.84740166      -0.92856258      -3.35767446       0.00000000
