10
Lattice="16.28999089631971 0.0 0.0 0.0 16.28999089631971 0.0 0.0 0.0 34.385447050020396" Properties=species:S:1:pos:R:3:initial_magmoms:R:1 pbc="T T T"
Si       1.76210559       1.02111879      -1.24152165       0.00000000
Si      -1.00870938      -1.83686040      -1.16893393       0.00000000
Si       0.79806339      -0.51269517       2.20747816       0.00000000
Si      -1.77956847       1.74179426       0.15600686       0.00000000
Si      -1.33229394      -0.37613610       3.09778666       0.00000000
Si      -2.30694093      -0.38903778      -2.62845943       0.00000000
Si       0.41114331       2.34847458      -2.63719334       0.00000000
Si      -2.14140195       1.74042590       2.59548376       0.00000000
Si       2.57183262       2.92021775       0.02630488       0.00000000
Si      -0.92079225       3.64548113      -1.13575195       0.00000000
