10
Lattice="16.28999089631971 0.0 0.0 0.0 16.28999089631971 0.0 0.0 0.0 34.385447050020396" Properties=species:S:1:pos:R:3:initial_magmoms:R:1 pbc="T T T"
Si       0.93260250      -1.46549727      -1.49377343       0.00000000
Si       1.07799075       2.03188428      -0.35668044       0.00000000
Si       0.94923459      -0.97160076       1.94621739       0.00000000
Si      -2.12786496       0.38221227      -1.00037637       0.00000000
Si      -0.87260643      -2.96420985      -1.52410141       0.00000000
Si       0.90973134       1.94733918      -2.79299388       0.00000000
Si      -2.57412951       2.40707556       0.04054046       0.00000000
Si       1.00372464      -0.31555359      -3.45910914       0.00000000
Si       3.20018679      -0.19104912       1.89635846       0.00000000
Si       1.09467171      -3.32553834       1.36716614       0.00000000
