10
Lattice="16.28999089631971 0.0 0.0 0.0 16.28999089631971 0.0 0.0 0.0 34.385447050020396" Properties=species:S:1:pos:R:3:initial_magmoms:R:1 pbc="T T T"
Si      -1.08089037       0.48254238      -2.00752668       0.00000000
Si       1.22898276       1.95574482       0.51578199       0.00000000
Si      -1.83910842      -0.21383883       1.48356094       0.00000000
Si       0.84343104      -2.19749168       0.39814931       0.00000000
Si       0.40931883       2.07418941       2.69846824       0.00000000
Si       0.72855396      -2.02105306       2.72590784       0.00000000
Si      -3.50046036      -0.74437155      -0.05611708       0.00000000
Si      -2.54529621      -1.35648459      -2.15937290       0.00000000
Si      -1.89609084       1.80094095       2.74076236       0.00000000
Si       1.41213123       0.10609677       3.55078079       0.00000000
