10
Lattice="16.28999089631971 0.0 0.0 0.0 16.28999089631971 0.0 0.0 0.0 34.385447050020396" Properties=species:S:1:pos:R:3:initial_magmoms:R:1 pbc="T T T"
Si       1.08089037      -0.48254238       2.00752668       0.00000000
Si       1.54408023       0.01291797      -1.77494338       0.00000000
Si      -1.46440584      -1.83902697      -0.15184622       0.00000000
Si      -1.56761928       1.81586259       0.21318989       0.00000000
Si      -0.00638568      -1.27959579      -3.07065652       0.00000000
Si      -2.41956999      -1.22691393       1.95140960       0.00000000
Si      -2.28431412      -1.34177472      -2.34790841       0.00000000
Si      -0.75821805      -0.69638121       3.49108762       0.00000000
Si      -3.37843197       0.76010769       1.31978297       0.00000000
Si       1.58379525       2.34292554      -2.39996800       0.00000000
