10
Lattice="16.28999089631971 0.0 0.0 0.0 16.28999089631971 0.0 0.0 0.0 34.385447050020396" Properties=species:S:1:pos:R:3:initial_magmoms:R:1 pbc="T T T"
Si       1.35601218       1.35521397      -1.35681611       0.00000000
Si      -1.35492075       1.35314514       1.36032343       0.00000000
Si       1.35399222      -1.36050822       1.35922310       0.00000000
Si      -1.35843939      -1.35959598      -1.35681611       0.00000000
Si       2.71453302       2.71182888       0.00089402       0.00000000
Si      -0.00796581       2.70643689       2.72057809       0.00000000
Si       2.71399545      -0.00131949      -2.71356346       0.00000000
Si      -0.00112401       2.71322982      -2.71445748       0.00000000
Si      -2.71608057       2.71301805       0.00065332       0.00000000
Si       2.71259451      -2.71766884       0.00003439       0.00000000
