10
Lattice="16.28999089631971 0.0 0.0 0.0 16.28999089631971 0.0 0.0 0.0 34.385447050020396" Properties=species:S:1:pos:R:3:initial_magmoms:R:1 pbc="T T T"
Si       1.31997042       1.35283563       1.34873553       0.00000000
Si      -1.34578938      -1.34820927       1.36080483       0.00000000
Si      -1.35663852       1.35557235      -1.35265547       0.00000000
Si       1.35548099      -1.35713619      -1.35330880       0.00000000
Si       2.67556720      -0.00221544       2.63691825       0.00000000
Si      -0.15010338       2.58051519       2.72714572       0.00000000
Si       0.00038321       2.71401174      -2.71081262       0.00000000
Si       2.71513561      -0.00097740      -2.71022807       0.00000000
Si      -2.71515936      -0.00104256      -2.71036561       0.00000000
Si       0.00016289      -2.71575477      -2.71050315       0.00000000
