10
Lattice="16.28999089631971 0.0 0.0 0.0 16.28999089631971 0.0 0.0 0.0 34.385447050020396" Properties=species:S:1:pos:R:3:initial_magmoms:R:1 pbc="T T T"
Si       1.35492075       1.35687555       1.35874170       0.00000000
Si       1.35268902      -1.36293543      -1.35526877       0.00000000
Si      -1.35987291      -1.35796698       1.35815715       0.00000000
Si      -1.36368477       1.35648459      -1.36200832       0.00000000
Si       0.00472410      -2.68807806      -2.72065374       0.00000000
Si       2.71340901       2.71463076       0.00020631       0.00000000
Si       2.71280586      -0.00092853       2.71535150       0.00000000
Si       2.71454931      -2.71461447       0.00391994       0.00000000
Si      -0.00278559       2.71402803       2.71559220       0.00000000
Si      -0.00273672      -2.71598283       2.71579851       0.00000000
