10
Lattice="16.28999089631971 0.0 0.0 0.0 16.28999089631971 0.0 0.0 0.0 34.385447050020396" Properties=species:S:1:pos:R:3:initial_magmoms:R:1 pbc="T T T"
Si       1.35559678      -1.35505107       1.28818272       0.00000000
Si      -1.31997042      -1.35283563      -1.34873553       0.00000000
Si      -1.47007380       1.22767956       1.37841019       0.00000000
Si       1.39695709       1.36414089      -1.34347455       0.00000000
Si       2.18518132       0.51986277       2.42018666       0.00000000
Si       0.33667357       2.20056723       2.49693502       0.00000000
Si      -2.66575980      -2.70104490       0.01206930       0.00000000
Si      -2.67660894       0.00273672      -2.70139100       0.00000000
Si      -2.66595528       2.72086983       0.00522659       0.00000000
Si       0.03551057      -2.70997182      -2.70204432       0.00000000
