10
Lattice="16.28999089631971 0.0 0.0 0.0 16.28999089631971 0.0 0.0 0.0 34.385447050020396" Properties=species:S:1:pos:R:3:initial_magmoms:R:1 pbc="T T T"
Si      -1.35638685      -1.35635427      -1.35819153       0.00000000
Si       1.35856971      -1.35567009       1.35822592       0.00000000
Si       1.35816246       1.35871632      -1.35819153       0.00000000
Si      -1.35622395       1.35751086       1.36283357       0.00000000
Si      -2.71388142      -2.71349046      -0.00051578       0.00000000
Si       0.00107514      -2.71327869      -2.71562658       0.00000000
Si      -2.71428867       0.00172674      -2.71511080       0.00000000
Si       2.71586880       0.00156384      -2.71504203       0.00000000
Si       2.71673217      -2.71467963      -0.00027508       0.00000000
Si       2.71609686       2.71549413       0.00017193       0.00000000
