10
Lattice="16.28999089631971 0.0 0.0 0.0 16.28999089631971 0.0 0.0 0.0 34.385447050020396" Properties=species:S:1:pos:R:3:initial_magmoms:R:1 pbc="T T T"
Si      -1.35731538      -1.35560493      -1.35764136       0.00000000
Si      -1.35793440       1.35700587       1.35633472       0.00000000
Si       1.35865116       1.35643572      -1.35691927       0.00000000
Si       1.35739683      -1.35894438       1.35643787       0.00000000
Si       2.70840798       0.00747711      -2.71476695       0.00000000
Si      -2.71349046      -0.00350235      -2.71318522       0.00000000
Si       2.71453302       2.71311579      -0.00120349       0.00000000
Si       0.00128691       2.71138905      -2.71645184       0.00000000
Si      -0.00043983       2.71422351       2.71370100       0.00000000
Si      -2.71472850       2.71410948      -0.00120349       0.00000000
