10
Lattice="16.28999089631971 0.0 0.0 0.0 16.28999089631971 0.0 0.0 0.0 34.385447050020396" Properties=species:S:1:pos:R:3:initial_magmoms:R:1 pbc="T T T"
Si      -2.13035733       0.13655907       0.89030849       0.00000000
Si       1.14590376       1.58542720       1.35863854       0.00000000
Si       0.45367650      -2.23081776       0.72742454       0.00000000
Si      -0.79806339       0.51269517      -2.20747816       0.00000000
Si       2.50610247      -1.55994669      -0.11777022       0.00000000
Si      -1.53044550      -0.20605221       3.15287217       0.00000000
Si       2.59462233       2.55539505      -0.18812289       0.00000000
Si      -2.93946534       2.25312107       0.38800560       0.00000000
Si       3.74377499       0.50523435      -0.30977867       0.00000000
Si      -0.37217763      -2.31112746       3.03864365       0.00000000
