10
Lattice="16.28999089631971 0.0 0.0 0.0 16.28999089631971 0.0 0.0 0.0 34.385447050020396" Properties=species:S:1:pos:R:3:initial_magmoms:R:1 pbc="T T T"
Si       0.57658455      -0.57236544       2.16387739       0.00000000
Si      -1.25965683       1.98383597      -0.00123788       0.00000000
Si      -1.47895281      -1.38616497      -1.18956521       0.00000000
Si       1.98902529      -0.67486212      -1.05749063       0.00000000
Si       1.19739645       0.40531444      -2.98379884       0.00000000
Si       1.66578282      -2.91475341      -0.16982982       0.00000000
Si      -3.39315813      -0.64514916       0.12440662       0.00000000
Si       2.12907042       1.14282888       2.55628433       0.00000000
Si      -0.32068494      -3.49124022      -1.30379372       0.00000000
Si       1.55813850      -2.67817374       2.16270829       0.00000000
