10
Lattice="16.28999089631971 0.0 0.0 0.0 16.28999089631971 0.0 0.0 0.0 34.385447050020396" Properties=species:S:1:pos:R:3:initial_magmoms:R:1 pbc="T T T"
Si      -1.10956077       0.20986407      -2.06350622       0.00000000
Si      -0.34885035      -1.13865471       2.06226834       0.00000000
Si       2.25739394       0.50709141      -0.59129248       0.00000000
Si      -0.60144309       2.08705851       1.30764490       0.00000000
Si      -2.54855421       0.61626699       1.77673143       0.00000000
Si      -1.57534074      -2.68488522       0.74049102       0.00000000
Si      -0.21695022       2.43046800      -2.34701439       0.00000000
Si       3.20320763      -1.63545084      -0.95233987       0.00000000
Si      -0.41673078      -1.74011409      -3.26386846       0.00000000
Si       1.96909026       1.64111976      -2.71524834       0.00000000
