10
Lattice="16.28999089631971 0.0 0.0 0.0 16.28999089631971 0.0 0.0 0.0 34.385447050020396" Properties=species:S:1:pos:R:3:initial_magmoms:R:1 pbc="T T T"
Si       1.35030416      -1.34881200       1.35599086       0.00000000
Si      -1.35778443      -1.33677369      -1.38092720       0.00000000
Si      -1.36237898       1.36642149       1.35354949       0.00000000
Si       1.35584276       1.34780202      -1.39217125       0.00000000
Si      -0.39256294       2.12090913      -2.84862957       0.00000000
Si      -2.40352175       0.39180708      -2.73182902       0.00000000
Si       0.16419994      -2.60975574      -2.76299600       0.00000000
Si       2.71200155      -2.70572013       0.00089402       0.00000000
Si      -0.00584485      -2.70633915       2.71328837       0.00000000
Si       2.70932999       0.00726534       2.71208488       0.00000000
