10
Lattice="16.28999089631971 0.0 0.0 0.0 16.28999089631971 0.0 0.0 0.0 34.385447050020396" Properties=species:S:1:pos:R:3:initial_magmoms:R:1 pbc="T T T"
Si      -1.35719483      -1.35637056       1.35654103       0.00000000
Si       1.35754344       1.35677781       1.35719435       0.00000000
Si       1.35741312      -1.35866745      -1.35691927       0.00000000
Si      -1.35876845       1.35801585      -1.35757259       0.00000000
Si      -2.71143334      -0.00552231       2.71291013       0.00000000
Si       2.71476108       0.00011403       2.71277259       0.00000000
Si      -0.00161271      -2.71474479      -2.71301329       0.00000000
Si       0.00164529      -2.71210581       2.71576413       0.00000000
Si       2.71467963      -2.71458189       0.00003439       0.00000000
Si      -2.71429586       0.00048870      -2.71545466       0.00000000
