10
Lattice="16.28999089631971 0.0 0.0 0.0 16.28999089631971 0.0 0.0 0.0 34.385447050020396" Properties=species:S:1:pos:R:3:initial_magmoms:R:1 pbc="T T T"
Si       0.26905378      -2.03853060       1.07327356       0.00000000
Si      -0.89430049       1.27369881       1.76167059       0.00000000
Si      -1.12250710       0.11637576      -2.08716342       0.00000000
Si       1.64214114       1.52821377      -0.79894631       0.00000000
Si       0.59540602       1.45443636      -3.09964347       0.00000000
Si      -2.83564495       1.98641889       0.61185499       0.00000000
Si       1.07581929       2.29353426       2.53173311       0.00000000
Si       1.47992532      -1.51560531       2.98555249       0.00000000
Si      -2.72800063       1.74983922      -1.72068312       0.00000000
Si       1.22353701       3.48350247       0.53981743       0.00000000
