10
Lattice="16.28999089631971 0.0 0.0 0.0 16.28999089631971 0.0 0.0 0.0 34.385447050020396" Properties=species:S:1:pos:R:3:initial_magmoms:R:1 pbc="T T T"
Si      -2.21697289      -0.72145152      -0.51193082       0.00000000
Si       0.28297359       2.38824432      -0.21889788       0.00000000
Si       1.71020565      -1.04412384      -1.42118571       0.00000000
Si       0.38705040      -0.73075311       2.53169872       0.00000000
Si       2.61381195       2.24712405       0.41135333       0.00000000
Si       1.57460769      -3.16143288      -0.03727385       0.00000000
Si       3.61463697       0.30542121      -0.77329475       0.00000000
Si      -3.05801486       0.95508270      -2.12608776       0.00000000
Si      -2.32288069      -2.74450662      -1.69733539       0.00000000
Si      -1.29382511       3.60194706       1.48878753       0.00000000
