10
Lattice="16.28999089631971 0.0 0.0 0.0 16.28999089631971 0.0 0.0 0.0 34.385447050020396" Properties=species:S:1:pos:R:3:initial_magmoms:R:1 pbc="T T T"
Si      -1.35345954      -1.36477620       1.34141142       0.00000000
Si      -1.36117285       1.35360126      -1.35626595       0.00000000
Si       1.35584928      -1.36037790      -1.35654103       0.00000000
Si       1.34623818       1.35281934       1.38085155       0.00000000
Si       2.55824676      -0.16250904       2.79698260       0.00000000
Si      -2.74093001      -0.10469583       2.67769941       0.00000000
Si      -0.00184077       2.71308881      -2.71346030       0.00000000
Si       2.71322982      -0.00208512      -2.71394170       0.00000000
Si       2.71682991       2.71300559       0.00897461       0.00000000
Si       2.71306692      -2.71704168      -0.00096279       0.00000000
