10
Lattice="16.28999089631971 0.0 0.0 0.0 16.28999089631971 0.0 0.0 0.0 34.385447050020396" Properties=species:S:1:pos:R:3:initial_magmoms:R:1 pbc="T T T"
Si      -0.81379953       1.53570717       1.49071312       0.00000000
Si      -0.35287398      -2.24015193       0.42228791       0.00000000
Si      -1.71273712       0.77559948      -1.35526877       0.00000000
Si       1.33582887      -2.51328636      -1.27858918       0.00000000
Si      -2.99532375       1.26814392       0.58431223       0.00000000
Si       2.22210261      -0.61069581      -2.51646596       0.00000000
Si      -0.43857567       2.28224694      -2.57433670       0.00000000
Si       3.47224608       0.93603969      -1.24330969       0.00000000
Si      -0.34267644      -2.84455980       2.66772763       0.00000000
Si       3.88198845       0.44686728       1.04287681       0.00000000
