10
Lattice="16.28999089631971 0.0 0.0 0.0 16.28999089631971 0.0 0.0 0.0 34.31052061344573" Properties=species:S:1:pos:R:3:initial_magmoms:R:1 pbc="T T T"
Si      -1.31621571       1.37482713       1.34383405       0.00000000
Si       1.40752116      -1.36829484       1.32268846       0.00000000
Si       1.17478593       1.59884721      -1.32007572       0.00000000
Si      -1.76368572      -0.77279760      -1.48254611       0.00000000
Si      -2.53500256       2.60291394      -0.26127476       0.00000000
Si      -2.65197779      -2.65135877      -0.03233082       0.00000000
Si      -2.67177177       0.01562211       2.69930623       0.00000000
Si      -0.70325559       3.38043564      -1.58719326       0.00000000
Si       0.04764825      -2.70325219       2.69810537       0.00000000
Si       0.04497669       2.72756502       2.69975227       0.00000000
