10
Lattice="16.28999089631971 0.0 0.0 0.0 16.28999089631971 0.0 0.0 0.0 34.31052061344573" Properties=species:S:1:pos:R:3:initial_magmoms:R:1 pbc="T T T"
Si       1.35477414       1.35685926       1.35804548       0.00000000
Si      -1.35726651      -1.35646178       1.35787392       0.00000000
Si       1.35752715      -1.35754507      -1.35694754       0.00000000
Si      -1.35834165       1.35861858      -1.35674167       0.00000000
Si      -2.71428867      -0.00244350       2.71187075       0.00000000
Si      -0.00285075       2.71428867      -2.71269421       0.00000000
Si       0.00614133       2.71433754       2.71413525       0.00000000
Si       2.71394658      -2.71454371       0.00078914       0.00000000
Si       0.00343719      -2.71662533       2.71207662       0.00000000
Si      -0.00123804      -2.71465313      -2.71434111       0.00000000
