10
Lattice="16.28999089631971 0.0 0.0 0.0 16.28999089631971 0.0 0.0 0.0 34.31052061344573" Properties=species:S:1:pos:R:3:initial_magmoms:R:1 pbc="T T T"
Si      -0.31938174      -0.40566987      -2.28034710       0.00000000
Si       2.14358481       0.79078176      -0.59566528       0.00000000
Si      -1.70756667       1.64713077       0.22929734       0.00000000
Si      -1.09485090      -2.22083362      -0.59573390       0.00000000
Si       0.88368363      -0.90618012       2.84101563       0.00000000
Si      -1.44316368      -0.44963658       2.85196069       0.00000000
Si      -2.35124973      -2.29225875       1.60388049       0.00000000
Si       3.26785545       1.54745226       1.33505741       0.00000000
Si       3.60370638      -1.25832919      -0.63704379       0.00000000
Si      -2.74287762       1.60678044       2.30625155       0.00000000
