10
Lattice="16.28999089631971 0.0 0.0 0.0 16.28999089631971 0.0 0.0 0.0 34.31052061344573" Properties=species:S:1:pos:R:3:initial_magmoms:R:1 pbc="T T T"
Si      -1.83995454      -0.78899851       1.22859181       0.00000000
Si       0.74053525      -1.82737198      -1.35715340       0.00000000
Si      -1.82351793       1.04294298      -1.34435557       0.00000000
Si       2.13952045       0.39653460       1.25943698       0.00000000
Si       1.77069856      -0.13344004      -2.61271329       0.00000000
Si      -0.76677519      -0.92016559       3.29964461       0.00000000
Si       3.39591928       0.46795973      -0.94017741       0.00000000
Si       1.51413107      -1.46003248       2.89203540       0.00000000
Si      -0.90505839       2.70542544      -2.65793459       0.00000000
Si      -3.55514493       0.87612360       1.51817276       0.00000000
