10
Lattice="16.28999089631971 0.0 0.0 0.0 16.28999089631971 0.0 0.0 0.0 34.31052061344573" Properties=species:S:1:pos:R:3:initial_magmoms:R:1 pbc="T T T"
Si       2.10222450      -0.93759213      -0.01125386       0.00000000
Si      -0.91906551      -1.82728092      -1.07522370       0.00000000
Si      -0.49339152       0.28115725       2.26185371       0.00000000
Si      -1.57998339       1.65072271      -0.67097692       0.00000000
Si      -1.75124016       2.14520566       1.66924207       0.00000000
Si       0.32697288      -1.89219657      -3.16219659       0.00000000
Si      -3.01374774       0.51107432      -2.10851991       0.00000000
Si      -1.92741651      -1.47702635       2.84437806       0.00000000
Si       1.55098719       0.86883530       3.30036513       0.00000000
Si       2.38992219      -2.05653009      -2.02806170       0.00000000
