10
Lattice="16.28999089631971 0.0 0.0 0.0 16.28999089631971 0.0 0.0 0.0 34.31052061344573" Properties=species:S:1:pos:R:3:initial_magmoms:R:1 pbc="T T T"
Si       1.25784864      -1.86404841       0.59261164       0.00000000
Si      -1.80191835       0.56153259       1.37801421       0.00000000
Si       1.33371117       1.91819637      -0.07754182       0.00000000
Si       0.17125677      -0.49448295      -2.34021899       0.00000000
Si       1.75124016      -2.14520566      -1.66924207       0.00000000
Si       0.18340911       2.73606840      -1.97210121       0.00000000
Si      -1.50478875       2.85768954       1.68547096       0.00000000
Si      -3.72829882       0.07234389       0.14640307       0.00000000
Si      -0.17617635      -3.62223202       1.17513599       0.00000000
Si       3.30222735      -1.27637037       1.63112306       0.00000000
