10
Lattice="16.28999089631971 0.0 0.0 0.0 16.28999089631971 0.0 0.0 0.0 34.31052061344573" Properties=species:S:1:pos:R:3:initial_magmoms:R:1 pbc="T T T"
Si      -1.35705474      -1.35480672      -1.35928065       0.00000000
Si       1.36503684      -1.35593073       1.35492322       0.00000000
Si       1.35879777       1.36036161      -1.35883462       0.00000000
Si      -1.35917244       1.36409202       1.36075601       0.00000000
Si       2.71366965      -2.71340901      -0.00116656       0.00000000
Si       0.00055386      -2.71164969      -2.71595371       0.00000000
Si      -2.71429844      -2.71474479       0.00020586       0.00000000
Si      -2.71368920       0.00097740      -2.71605664       0.00000000
Si       2.71552671       0.00252495      -2.71615957       0.00000000
Si       2.70109377      -0.00983916       2.73159931       0.00000000
