10
Lattice="16.28999089631971 0.0 0.0 0.0 16.28999089631971 0.0 0.0 0.0 34.31052061344573" Properties=species:S:1:pos:R:3:initial_magmoms:R:1 pbc="T T T"
Si      -0.43025148       1.40312286       1.76222363       0.00000000
Si       2.22884667       0.46902168      -0.45444310       0.00000000
Si      -0.44240382      -1.82742849       1.39410585       0.00000000
Si      -1.47448935       1.24237314      -1.40831042       0.00000000
Si      -2.05073181      -0.68082426      -2.65371439       0.00000000
Si      -1.87616817      -2.96707689      -0.04343714       0.00000000
Si      -0.75101787      -2.73724128      -2.10800525       0.00000000
Si      -2.82690144       1.35747828       1.75995914       0.00000000
Si       3.07349946      -1.43935182      -1.53069611       0.00000000
Si       2.18911536       2.31946794      -1.99340805       0.00000000
