10
Lattice="16.28999089631971 0.0 0.0 0.0 16.28999089631971 0.0 0.0 0.0 34.31052061344573" Properties=species:S:1:pos:R:3:initial_magmoms:R:1 pbc="T T T"
Si      -0.27008820       1.53314964       1.86529250       0.00000000
Si       2.30179329      -0.68675382       0.40726611       0.00000000
Si      -1.36181142      -1.76384862       0.99236374       0.00000000
Si      -2.06008227      -0.84589083      -1.37420574       0.00000000
Si      -0.72510048      -1.38367260      -3.28067088       0.00000000
Si      -2.60367957       1.64214603       2.05177028       0.00000000
Si       1.09154403       3.36105054       1.25394730       0.00000000
Si       0.11267793      -3.00622176       2.40067416       0.00000000
Si      -3.19802674      -0.67225572       2.05804911       0.00000000
Si       0.50459904       0.55980585       3.85942107       0.00000000
