10
Lattice="16.28999089631971 0.0 0.0 0.0 16.28999089631971 0.0 0.0 0.0 34.31052061344573" Properties=species:S:1:pos:R:3:initial_magmoms:R:1 pbc="T T T"
Si      -1.75583394       0.96832647      -1.28424350       0.00000000
Si       1.54458522       0.93605598      -1.57039341       0.00000000
Si      -0.49047561      -2.36079567      -0.03338416       0.00000000
Si      -1.11290022       1.27115757       2.11490167       0.00000000
Si      -1.42957782       0.05908383      -3.39056754       0.00000000
Si       3.39688854      -0.49764321      -1.63980363       0.00000000
Si       1.88261901       3.22149411      -0.92418870       0.00000000
Si      -3.54970014       0.96484041       1.59691545       0.00000000
Si       0.75647502       0.94439646      -3.83018849       0.00000000
Si       1.36288656      -3.78100674      -0.16105367       0.00000000
