10
Lattice="16.28999089631971 0.0 0.0 0.0 16.28999089631971 0.0 0.0 0.0 34.31052061344573" Properties=species:S:1:pos:R:3:initial_magmoms:R:1 pbc="T T T"
Si      -1.40660892       1.13538042      -1.47655751       0.00000000
Si       1.34426709       1.36673100       1.35589077       0.00000000
Si      -1.36648665      -1.35081567       1.35688578       0.00000000
Si       1.42692255      -1.21029813      -1.46889597       0.00000000
Si       0.31550472       1.96644735      -2.84273943       0.00000000
Si      -0.23667741      -2.47953348      -2.66294221       0.00000000
Si      -2.11471893      -0.69794505      -2.93005975       0.00000000
Si       2.70814734      -2.70332550      -0.03353512       0.00000000
Si       2.70513369       0.00747711       2.71180900       0.00000000
Si      -0.01187541      -2.70888039       2.71596057       0.00000000
