10
Lattice="16.28999089631971 0.0 0.0 0.0 16.28999089631971 0.0 0.0 0.0 34.31052061344573" Properties=species:S:1:pos:R:3:initial_magmoms:R:1 pbc="T T T"
Si      -0.98909622       0.58388247       2.01485214       0.00000000
Si      -0.82217259      -2.16290475       0.30347672       0.00000000
Si      -0.77468724       0.97334379      -1.99412857       0.00000000
Si       2.36060019      -0.01557324       0.01156265       0.00000000
Si       0.32812947      -2.98077678       2.19803611       0.00000000
Si      -0.32431761      -1.15597098       3.52142794       0.00000000
Si      -3.10827861       1.08234018      -1.80765079       0.00000000
Si      -0.06481791       2.48810202       2.85436243       0.00000000
Si       3.08162817       0.38473722      -2.18046911       0.00000000
Si       3.13608564      -2.24194383      -0.10059850       0.00000000
