10
Lattice="16.28999089631971 0.0 0.0 0.0 16.28999089631971 0.0 0.0 0.0 34.31052061344573" Properties=species:S:1:pos:R:3:initial_magmoms:R:1 pbc="T T T"
Si       1.40335092      -1.88240724       0.14177115       0.00000000
Si       0.21887244       1.92362094       1.35938359       0.00000000
Si      -0.54718110       0.76256748      -2.18492948       0.00000000
Si      -1.99270683      -0.55063458       1.19431558       0.00000000
Si      -2.23081776       2.16922527      -1.41880944       0.00000000
Si      -3.02459688       1.47090555       0.70250830       0.00000000
Si       1.48108680       1.89910449      -2.53427940       0.00000000
Si       0.43271127      -3.05430984      -1.64848419       0.00000000
Si       0.52585749      -2.88160326       2.02634617       0.00000000
Si       1.23484716       0.87229692       3.24835035       0.00000000
