10
Lattice="16.28999089631971 0.0 0.0 0.0 16.28999089631971 0.0 0.0 0.0 34.31052061344573" Properties=species:S:1:pos:R:3:initial_magmoms:R:1 pbc="T T T"
Si       1.34557029       1.33537275      -1.36787544       0.00000000
Si       1.35226548      -1.35744570       1.35924634       0.00000000
Si      -1.36216980       1.35769005       1.35845720       0.00000000
Si      -1.36588392      -1.37196009      -1.38387445       0.00000000
Si      -0.04636134       2.44573173      -2.90917694       0.00000000
Si       2.70668124      -2.71265967       0.00006862       0.00000000
Si       2.71010214       0.00037467       2.71574785       0.00000000
Si      -2.71668982       2.71120986      -0.00209294       0.00000000
Si      -2.71436360      -2.71414206      -0.00336243       0.00000000
Si       2.70905958       2.71958292      -0.00332812       0.00000000
