10
Lattice="16.28999089631971 0.0 0.0 0.0 16.28999089631971 0.0 0.0 0.0 34.31052061344573" Properties=species:S:1:pos:R:3:initial_magmoms:R:1 pbc="T T T"
Si       1.68363666      -1.40665779      -0.76612004       0.00000000
Si       0.12952179       2.21056929      -0.71012524       0.00000000
Si      -1.94251734       0.17707230      -1.27844502       0.00000000
Si      -0.79377912      -0.69831972       2.12131774       0.00000000
Si      -2.21667804       2.48135488      -0.64315107       0.00000000
Si       2.23081776      -2.16922527       1.41880944       0.00000000
Si       2.44969020      -0.24560433       2.77819303       0.00000000
Si       0.23811093      -2.71985985       2.61312502       0.00000000
Si       1.37556018       2.14565364      -2.79709814       0.00000000
Si       0.88987383      -2.40671718      -2.84671118       0.00000000
