10
Lattice="16.28999089631971 0.0 0.0 0.0 16.28999089631971 0.0 0.0 0.0 34.31052061344573" Properties=species:S:1:pos:R:3:initial_magmoms:R:1 pbc="T T T"
Si       0.40203720       1.53332787      -1.77244817       0.00000000
Si       0.96295077      -2.05651476      -0.88033983       0.00000000
Si      -2.35095651       0.38977083       0.56753064       0.00000000
Si       1.55603709       1.39645766       1.30925589       0.00000000
Si      -0.37791171      -2.05829037      -2.83473680       0.00000000
Si       2.08487565       0.44235495      -3.00488276       0.00000000
Si       1.44010116       0.33681204       3.40027742       0.00000000
Si       2.99434635      -1.41214752      -1.92183627       0.00000000
Si       0.84993075       3.64512275       0.88504037       0.00000000
Si      -1.43879796       1.89229268      -3.18518465       0.00000000
