10
Lattice="16.28999089631971 0.0 0.0 0.0 16.28999089631971 0.0 0.0 0.0 34.31052061344573" Properties=species:S:1:pos:R:3:initial_magmoms:R:1 pbc="T T T"
Si      -1.35718506      -1.35643826      -1.35825134       0.00000000
Si       1.35883035       1.35870817      -1.35818272       0.00000000
Si      -1.35874890       1.36346485       1.35910910       0.00000000
Si       1.36293543      -1.35786126       1.36106480       0.00000000
Si      -2.71573848      -2.71384788      -0.00226450       0.00000000
Si      -2.71360449       0.00056038      -2.71598802       0.00000000
Si       0.00143352      -2.71391304      -2.71612526       0.00000000
Si       2.71492398      -2.71554204      -0.00120087       0.00000000
Si      -2.71635750       2.71496470      -0.00099501       0.00000000
Si       2.71575477       0.00108491      -2.71591940       0.00000000
