10
Lattice="16.28999089631971 0.0 0.0 0.0 16.28999089631971 0.0 0.0 0.0 34.31052061344573" Properties=species:S:1:pos:R:3:initial_magmoms:R:1 pbc="T T T"
Si       2.26654483       0.28022058      -0.50584029       0.00000000
Si      -0.95803528       2.13628689      -0.28587542       0.00000000
Si      -0.56482726      -1.20455590       1.95398524       0.00000000
Si      -0.54624037      -1.71982164      -1.56476648       0.00000000
Si      -2.86173355      -1.23394795      -1.28098400       0.00000000
Si       1.01578396      -3.21148295      -0.58636712       0.00000000
Si      -1.48402309       1.99617660      -2.59102903       0.00000000
Si       2.97988393      -1.97285909      -0.69506292       0.00000000
Si      -3.64169875       0.12742038       0.54989502       0.00000000
Si       2.28632089       1.49185449      -2.51688396       0.00000000
