10
Lattice="16.28999089631971 0.0 0.0 0.0 16.28999089631971 0.0 0.0 0.0 34.31052061344573" Properties=species:S:1:pos:R:3:initial_magmoms:R:1 pbc="T T T"
Si       1.35785295       1.35646830       1.35732495       0.00000000
Si       1.35770634      -1.35685926      -1.35763375       0.00000000
Si      -1.35788553       1.35767376      -1.35753082       0.00000000
Si      -1.35974259      -1.35826020       1.35746220       0.00000000
Si      -2.70837540      -0.00078192       2.71355197       0.00000000
Si      -0.00213399      -2.70976005       2.71756630       0.00000000
Si       2.71513575       0.00128691      -2.71259128       0.00000000
Si       2.71852407      -0.00158013       2.71008661       0.00000000
Si      -2.71451673      -2.71511946      -0.00058328       0.00000000
Si       2.71544526      -2.71451673       0.00027448       0.00000000
