10
Lattice="16.28999089631971 0.0 0.0 0.0 16.28999089631971 0.0 0.0 0.0 34.31052061344573" Properties=species:S:1:pos:R:3:initial_magmoms:R:1 pbc="T T T"
Si       1.34928441       1.33260345       1.37427436       0.00000000
Si       1.35321030      -1.35384561      -1.35433994       0.00000000
Si      -1.36067112       1.35804843      -1.35276165       0.00000000
Si      -1.35172791      -1.34917038       1.38144526       0.00000000
Si      -0.13533732       2.58517413       2.71053264       0.00000000
Si       2.70858717      -2.71208952       0.00634745       0.00000000
Si       2.71145421       0.00169416      -2.71018954       0.00000000
Si      -0.00307881      -2.71293660      -2.70981212       0.00000000
Si      -0.00311139       2.71720458      -2.71025816       0.00000000
Si      -2.71852407       0.00158013      -2.71008661       0.00000000
