10
Lattice="16.28999089631971 0.0 0.0 0.0 16.28999089631971 0.0 0.0 0.0 34.31052061344573" Properties=species:S:1:pos:R:3:initial_magmoms:R:1 pbc="T T T"
Si       0.73187712       0.77322114      -2.08168907       0.00000000
Si       1.89915336      -1.11708675       0.86647837       0.00000000
Si      -1.66531041      -1.73293020       0.00782280       0.00000000
Si      -0.80128881       1.93012065       1.25219746       0.00000000
Si      -0.32250942      -0.81034605      -3.35519338       0.00000000
Si      -0.62534052       2.61855234      -2.41474148       0.00000000
Si       3.36303792       0.80208702       1.31320160       0.00000000
Si      -1.78777863      -2.43299295       2.29774254       0.00000000
Si      -0.90222165       3.72659814      -0.34307109       0.00000000
Si      -3.57049107      -1.07877267      -1.18584088       0.00000000
