10
Lattice="16.28999089631971 0.0 0.0 0.0 16.28999089631971 0.0 0.0 0.0 34.31052061344573" Properties=species:S:1:pos:R:3:initial_magmoms:R:1 pbc="T T T"
Si      -0.10000431       2.32018470       0.11566083       0.00000000
Si      -1.12427064      -0.75667050      -1.93072269       0.00000000
Si      -0.88650180      -0.69919938       2.09421242       0.00000000
Si       2.36147985      -0.43077276      -0.07514008       0.00000000
Si       0.33585093      -2.80578145      -1.97210121       0.00000000
Si       0.13730841       2.88357435      -2.16997009       0.00000000
Si       1.01867886      -1.35335691       3.28787610       0.00000000
Si      -0.63430002       1.07621514      -3.50989960       0.00000000
Si      -2.38417182      -2.45363238       1.50595821       0.00000000
Si       2.05864875       2.99812563       0.86531181       0.00000000
