10
Lattice="16.28999089631971 0.0 0.0 0.0 16.28999089631971 0.0 0.0 0.0 34.31052061344573" Properties=species:S:1:pos:R:3:initial_magmoms:R:1 pbc="T T T"
Si       2.18274597       0.24625593       0.86795373       0.00000000
Si      -0.76745448      -1.89573246       1.18474294       0.00000000
Si       1.03273713      -0.34272531      -2.13706628       0.00000000
Si      -2.36773521       1.14974820      -0.26165218       0.00000000
Si      -1.04433561      -0.78768666       3.25641333       0.00000000
Si      -0.86895747      -1.21790556      -3.27782311       0.00000000
Si       2.70620883       2.59458975       0.15940677       0.00000000
Si       0.22511151       1.22385141       3.59605336       0.00000000
Si      -2.68879482      -2.01028374      -1.85053896       0.00000000
Si      -1.54738710       3.37681926      -0.96680239       0.00000000
