10
Lattice="16.28999089631971 0.0 0.0 0.0 16.28999089631971 0.0 0.0 0.0 34.31052061344573" Properties=species:S:1:pos:R:3:initial_magmoms:R:1 pbc="T T T"
Si      -0.19290618       2.02022064      -1.10946561       0.00000000
Si       1.74793329      -1.54956996      -0.44854169       0.00000000
Si      -1.87465320      -1.24331796      -0.87766361       0.00000000
Si      -0.45481680       1.08273114       2.12070015       0.00000000
Si       0.78134985      -3.29484798       1.00330880       0.00000000
Si      -3.38310720      -0.65000358       1.09766279       0.00000000
Si      -2.70366759       1.57613895       1.85112224       0.00000000
Si      -2.11478409       3.00187233      -0.03980023       0.00000000
Si      -1.03332357      -3.46315626      -0.74124490       0.00000000
Si       1.42117218      -2.13672672      -2.70789073       0.00000000
