10
Lattice="16.28999089631971 0.0 0.0 0.0 16.28999089631971 0.0 0.0 0.0 34.31052061344573" Properties=species:S:1:pos:R:3:initial_magmoms:R:1 pbc="T T T"
Si       1.30960197       1.32291090      -1.41562684       0.00000000
Si      -1.33965702       1.37652129       1.34211852       0.00000000
Si       1.37920914      -1.35192339       1.33224738       0.00000000
Si      -1.69992666      -1.11034269      -1.46438211       0.00000000
Si       2.42825256      -0.46349937      -2.67705383       0.00000000
Si      -2.70451467       2.62457054      -0.10134304       0.00000000
Si       0.01189170      -2.70014895       2.69208043       0.00000000
Si      -2.70612738       0.02191005       2.68950714       0.00000000
Si       2.72497491       0.01734885       2.69238923       0.00000000
Si       0.01286910       2.73004992       2.69544287       0.00000000
