10
Lattice="16.28999089631971 0.0 0.0 0.0 16.28999089631971 0.0 0.0 0.0 34.31052061344573" Properties=species:S:1:pos:R:3:initial_magmoms:R:1 pbc="T T T"
Si      -1.33846785      -1.36414089      -1.37688196       0.00000000
Si       1.37371941       1.35560493      -1.37132365       0.00000000
Si       1.38256488      -1.40100516       1.32109302       0.00000000
Si      -1.43120682       1.29393099       1.47603942       0.00000000
Si       0.25855488       2.55430458       2.53939167       0.00000000
Si      -2.70270648      -2.69944848      -0.00977850       0.00000000
Si      -2.71710684       2.70943425       0.01574854       0.00000000
Si      -2.69865027      -0.00426798      -2.73242277       0.00000000
Si       2.73189816       2.70707220      -0.01787579       0.00000000
Si       0.01485648       2.71070487      -2.73334915       0.00000000
