10
Lattice="16.28999089631971 0.0 0.0 0.0 16.28999089631971 0.0 0.0 0.0 34.31052061344573" Properties=species:S:1:pos:R:3:initial_magmoms:R:1 pbc="T T T"
Si      -0.23886027      -1.67615955      -1.58003467       0.00000000
Si       1.42897509       1.79288784      -0.54773346       0.00000000
Si      -2.02074192       1.03907135       0.69664120       0.00000000
Si       0.85315617      -1.35078309       1.79674004       0.00000000
Si       2.06687520      -2.07984204      -1.57842207       0.00000000
Si       0.64900989       3.15425618       1.28314557       0.00000000
Si      -0.80562195      -3.00192120       1.62635390       0.00000000
Si       0.14986800      -0.03417642       3.61471830       0.00000000
Si      -2.16026577       0.27839742       2.97043498       0.00000000
Si      -1.35770634      -3.51034839      -0.61288917       0.00000000
