10
Lattice="16.28999089631971 0.0 0.0 0.0 16.28999089631971 0.0 0.0 0.0 34.31052061344573" Properties=species:S:1:pos:R:3:initial_magmoms:R:1 pbc="T T T"
Si      -1.05248550      -1.74643461      -1.17728524       0.00000000
Si       1.21878685      -1.22808681       1.60510881       0.00000000
Si       1.83174697       0.77752170      -1.32591850       0.00000000
Si      -1.47503248       1.45466442       1.58828635       0.00000000
Si       2.53500256      -2.60291394       0.26127476       0.00000000
Si       2.53985698       2.61084717       0.12758374       0.00000000
Si       0.77131684      -3.37571154      -1.22127135       0.00000000
Si      -1.47691829       3.39183864      -0.87847848       0.00000000
Si      -2.02032394      -0.88682760      -3.14231847       0.00000000
Si      -2.85231940      -2.65469985       0.13887877       0.00000000
