10
Lattice="16.28999089631971 0.0 0.0 0.0 16.28999089631971 0.0 0.0 0.0 34.31052061344573" Properties=species:S:1:pos:R:3:initial_magmoms:R:1 pbc="T T T"
Si       1.23527070      -1.32334814       1.50290114       0.00000000
Si       1.50043932       1.18188185      -1.44588187       0.00000000
Si      -1.54634454      -1.37508518      -1.24766988       0.00000000
Si      -1.47486402       1.37910488       1.47906904       0.00000000
Si       2.75652864      -2.49515300       0.13905032       0.00000000
Si       2.58248628       2.68476467       0.03970759       0.00000000
Si       2.58276321       0.03694735       2.86521828       0.00000000
Si      -0.13097160      -2.68064723       2.86034618       0.00000000
Si      -2.85594651      -2.69799608       0.16795695       0.00000000
Si      -3.00941460       2.54129864       0.13904346       0.00000000
