10
Lattice="16.28999089631971 0.0 0.0 0.0 16.28999089631971 0.0 0.0 0.0 34.31052061344573" Properties=species:S:1:pos:R:3:initial_magmoms:R:1 pbc="T T T"
Si       1.35425286      -1.35416326      -1.35320769       0.00000000
Si      -1.35936792      -1.35636893       1.35831996       0.00000000
Si       1.35692442       1.35870003       1.35907479       0.00000000
Si      -1.36365219       1.36132272      -1.36233429       0.00000000
Si       2.70200601       0.00024435      -2.71820791       0.00000000
Si       2.71063396      -2.71429201      -0.00006862       0.00000000
Si       2.71315433       0.00171045       2.71516457       0.00000000
Si       2.71251265       2.71684620       0.00339674       0.00000000
Si      -0.00200367      -2.71359170       2.71578216       0.00000000
Si       0.00676035      -2.71445876      -2.71552483       0.00000000
