10
Lattice="16.28999089631971 0.0 0.0 0.0 16.28999089631971 0.0 0.0 0.0 34.31052061344573" Properties=species:S:1:pos:R:3:initial_magmoms:R:1 pbc="T T T"
Si      -1.35107631      -1.35541614      -1.36892192       0.00000000
Si       1.35648459       1.36200038      -1.37200987       0.00000000
Si      -1.45373589       1.23435194       1.43352866       0.00000000
Si       1.49861484      -1.29151062       1.35307045       0.00000000
Si       0.15213231       2.44339574       2.82139000       0.00000000
Si      -2.70383049       2.72491952       0.00308795       0.00000000
Si       0.24461064      -2.86949720       2.54155323       0.00000000
Si       2.71795392      -2.71672958      -0.01571423       0.00000000
Si       2.71397916       2.72638562      -0.00737677       0.00000000
Si      -2.71401174       0.00244513      -2.72998672       0.00000000
