10
Lattice="16.28999089631971 0.0 0.0 0.0 16.28999089631971 0.0 0.0 0.0 34.31052061344573" Properties=species:S:1:pos:R:3:initial_magmoms:R:1 pbc="T T T"
Si       0.91845954       1.66248247      -1.31357902       0.00000000
Si      -1.22350932       1.59002455       1.32291148       0.00000000
Si      -1.76464683      -1.08151949      -1.24138964       0.00000000
Si       1.82351793      -1.04294298       1.34435557       0.00000000
Si      -0.01643661      -1.83194149       2.57294738       0.00000000
Si      -1.73162700      -0.16681937       2.86252833       0.00000000
Si       2.18320928       0.21674334      -2.60705206       0.00000000
Si       2.15569384       2.91062227       0.21746020       0.00000000
Si      -0.54530775      -2.50673845      -2.61017431       0.00000000
Si       0.39029211       3.24665239       1.73926988       0.00000000
