10
Lattice="16.28999089631971 0.0 0.0 0.0 16.28999089631971 0.0 0.0 0.0 34.31052061344573" Properties=species:S:1:pos:R:3:initial_magmoms:R:1 pbc="T T T"
Si       0.21302433      -0.96511734      -2.15778985       0.00000000
Si       0.46618722      -1.66555150       1.63846552       0.00000000
Si      -2.21711787       0.71307846       0.62692218       0.00000000
Si       1.84389768       1.56457305       0.32842049       0.00000000
Si      -0.31377798      -0.30418317       3.46934454       0.00000000
Si      -2.05788312       3.04924365       0.34231626       0.00000000
Si       2.78168040      -2.15142519       1.35468304       0.00000000
Si      -1.57594347      -2.43128250      -2.47553976       0.00000000
Si       3.68786119       0.57106224      -0.82904557       0.00000000
Si      -2.60234379      -0.09568746       2.94274638       0.00000000
