10
Lattice="16.28999089631971 0.0 0.0 0.0 16.28999089631971 0.0 0.0 0.0 34.31052061344573" Properties=species:S:1:pos:R:3:initial_magmoms:R:1 pbc="T T T"
Si      -2.28856581       0.20849571      -0.52659816       0.00000000
Si       0.55578222       2.28841920       0.12533640       0.00000000
Si       0.75103416      -1.14898257       1.92289989       0.00000000
Si       0.77996520      -1.36136833      -1.83087902       0.00000000
Si      -0.11054394       0.62649711       3.27977881       0.00000000
Si       2.68366347       2.00886651      -0.83577044       0.00000000
Si      -2.66975181      -2.11518482      -0.58650437       0.00000000
Si      -0.64900989      -3.15425618      -1.28314557       0.00000000
Si       0.31377798       0.30418317      -3.46934454       0.00000000
Si      -1.90333989       1.01726163      -2.84242236       0.00000000
