10
Lattice="16.28999089631971 0.0 0.0 0.0 16.28999089631971 0.0 0.0 0.0 34.31052061344573" Properties=species:S:1:pos:R:3:initial_magmoms:R:1 pbc="T T T"
Si       0.86752625       0.40736077      -2.14938377       0.00000000
Si       1.56202434      -1.49166131       0.97839935       0.00000000
Si      -2.31549318       0.48587369       0.28378247       0.00000000
Si       0.54624037       1.71982164       1.56476648       0.00000000
Si      -0.01858689       0.51526573       3.51875172       0.00000000
Si       0.90618079       2.72248743      -2.18372862       0.00000000
Si       2.81278520       2.00004222       1.05892619       0.00000000
Si       0.79887693      -1.65669530       3.11968583       0.00000000
Si       3.52612430      -0.25303746       0.86970356       0.00000000
Si      -2.78168040       2.15142519      -1.35468304       0.00000000
