10
Lattice="16.28999089631971 0.0 0.0 0.0 16.28999089631971 0.0 0.0 0.0 34.31052061344573" Properties=species:S:1:pos:R:3:initial_magmoms:R:1 pbc="T T T"
Si      -2.34316989      -0.30164193      -0.18455639       0.00000000
Si       0.89811657       2.05775280      -0.78289790       0.00000000
Si       0.86157810      -1.77547968      -1.35687892       0.00000000
Si       1.20177846      -1.06344378       1.82875177       0.00000000
Si       0.11054394      -0.62649711      -3.27977881       0.00000000
Si       0.66632616       1.66192209      -3.15444241       0.00000000
Si       3.11582088       2.20731129       0.03314398       0.00000000
Si      -0.38859795      -3.81492971      -0.94820608       0.00000000
Si      -0.29866086      -2.24532563       3.27463364       0.00000000
Si      -3.19438755      -2.37662955       0.52443660       0.00000000
