10
Lattice="16.28999089631971 0.0 0.0 0.0 16.28999089631971 0.0 0.0 0.0 34.31052061344573" Properties=species:S:1:pos:R:3:initial_magmoms:R:1 pbc="T T T"
Si       1.36544409       1.33059978       1.39785256       0.00000000
Si      -1.36487394      -1.37051028       1.39085321       0.00000000
Si       1.35275418      -1.43817894      -1.42553088       0.00000000
Si      -1.02895785       1.89346815      -1.31619005       0.00000000
Si       2.73004110       2.67118533       0.02387670       0.00000000
Si       2.70078426      -2.73158865       0.03497960       0.00000000
Si      -2.70459612      -2.74383873       0.01383058       0.00000000
Si      -0.00244350       2.69930187       2.75147198       0.00000000
Si       2.71129090      -0.01498680       2.75658425       0.00000000
Si      -2.75151132       2.71793763       0.02716709       0.00000000
