10
Lattice="16.28999089631971 0.0 0.0 0.0 16.28999089631971 0.0 0.0 0.0 34.31052061344573" Properties=species:S:1:pos:R:3:initial_magmoms:R:1 pbc="T T T"
Si       1.31520410      -1.34892603       1.40820748       0.00000000
Si      -1.35413136      -1.35819504      -1.36631432       0.00000000
Si       1.36011563       1.35975888      -1.36380965       0.00000000
Si      -1.43181837       1.32530553       1.41273648       0.00000000
Si      -2.70382302       2.70306486      -0.02164995       0.00000000
Si      -2.71268478      -2.70876636      -0.00212725       0.00000000
Si       2.70923714      -2.72315043       0.01413594       0.00000000
Si      -2.71042047      -0.00167787      -2.72549204       0.00000000
Si       0.00320913       2.71412577      -2.72717326       0.00000000
Si       2.72624390       2.71568961       0.03149708       0.00000000
