10
Lattice="16.28999089631971 0.0 0.0 0.0 16.28999089631971 0.0 0.0 0.0 34.31052061344573" Properties=species:S:1:pos:R:3:initial_magmoms:R:1 pbc="T T T"
Si      -2.12788125       0.27955269       0.96110684       0.00000000
Si       0.95803528      -2.13628689       0.28587542       0.00000000
Si      -0.52598781      -0.14011029      -2.30515362       0.00000000
Si       0.98565709       2.06294931       0.68240233       0.00000000
Si      -2.68366347      -2.00886651       0.83577044       0.00000000
Si      -0.23586291       2.15588376      -2.90469599       0.00000000
Si      -0.27567567       3.51269415      -0.88833419       0.00000000
Si       3.22458011      -1.85606631      -0.21996487       0.00000000
Si       1.31797570      -1.13362110      -3.46261968       0.00000000
Si      -1.89609084       0.67538340       3.33265135       0.00000000
