10
Lattice="16.28999089631971 0.0 0.0 0.0 16.28999089631971 0.0 0.0 0.0 34.31052061344573" Properties=species:S:1:pos:R:3:initial_magmoms:R:1 pbc="T T T"
Si      -0.30403656      -0.56876535      -2.25286435       0.00000000
Si      -2.26167102       0.40883013       0.47523529       0.00000000
Si       0.88984125      -0.50238360       2.13555662       0.00000000
Si       1.32032079       1.78562835      -0.82750160       0.00000000
Si       0.21942630       1.77956847      -2.96141131       0.00000000
Si      -0.18546165       1.34636850       3.19969801       0.00000000
Si      -2.57227245       2.47995702      -0.64490091       0.00000000
Si       1.18871388      -2.45930130      -2.50504682       0.00000000
Si      -2.47632435       1.13630895       2.72418824       0.00000000
Si       3.51730652       1.01300994      -1.28369454       0.00000000
