10
Lattice="16.28999089631971 0.0 0.0 0.0 16.28999089631971 0.0 0.0 0.0 34.31052061344573" Properties=species:S:1:pos:R:3:initial_magmoms:R:1 pbc="T T T"
Si      -1.35638110       1.36012874      -1.35313907       0.00000000
Si      -1.35444259      -1.35686311       1.35849151       0.00000000
Si       1.35963987       1.35820001       1.35873169       0.00000000
Si       1.36302330      -1.36127770      -1.35965807       0.00000000
Si      -2.70387361      -0.00016675      -2.71545621       0.00000000
Si      -2.71063396       2.71429201       0.00006862       0.00000000
Si      -2.71263763       0.00070031       2.71585078       0.00000000
Si      -2.71328923      -2.71569346       0.00024017       0.00000000
Si       0.00307208      -2.71453687       2.71578216       0.00000000
Si       0.00252037       2.71600246       2.71523319       0.00000000
