10
Lattice="16.28999089631971 0.0 0.0 0.0 16.28999089631971 0.0 0.0 0.0 34.31052061344573" Properties=species:S:1:pos:R:3:initial_magmoms:R:1 pbc="T T T"
Si      -0.32676111      -0.58715676      -2.25934905       0.00000000
Si      -1.74793329       1.54956996       0.44854169       0.00000000
Si       2.27525688      -0.00474039       0.78344687       0.00000000
Si      -0.96658344      -1.74527802       1.45185049       0.00000000
Si      -2.78125686      -1.91358630      -0.29270321       0.00000000
Si       1.92178017      -1.04246226      -2.72823688       0.00000000
Si      -1.34311050      -2.66119956      -2.01896940       0.00000000
Si      -3.62258649       0.30625200      -0.42912192       0.00000000
Si      -0.91491156      -0.80288523       3.77199781       0.00000000
Si       2.33272800       1.30684896      -3.05507908       0.00000000
