10
Lattice="16.28999089631971 0.0 0.0 0.0 16.28999089631971 0.0 0.0 0.0 34.31052061344573" Properties=species:S:1:pos:R:3:initial_magmoms:R:1 pbc="T T T"
Si      -2.24854128       0.45530550       0.46888784       0.00000000
Si       0.41094783       2.34931122      -0.32684220       0.00000000
Si       0.03981276      -1.35681039      -2.01636180       0.00000000
Si       1.26133276      -1.44974484       1.57073651       0.00000000
Si      -1.92178017       1.04246226       2.72823688       0.00000000
Si       2.51993335       2.27137986      -1.23620875       0.00000000
Si       0.27567567      -3.51269415       0.88833419       0.00000000
Si       0.35347671       1.03772187       3.51168375       0.00000000
Si       2.29250540      -1.17273339      -2.66606618       0.00000000
Si      -3.26489067      -1.61873730       0.70926748       0.00000000
