10
Lattice="16.28999089631971 0.0 0.0 0.0 16.28999089631971 0.0 0.0 0.0 34.31052061344573" Properties=species:S:1:pos:R:3:initial_magmoms:R:1 pbc="T T T"
Si       1.10108412      -1.71602118       1.13760026       0.00000000
Si       1.81358918       1.26019440      -0.95304386       0.00000000
Si      -1.16172135       1.55639547       1.43236210       0.00000000
Si      -0.70947837      -1.58632020      -1.73354002       0.00000000
Si       1.39950715      -1.66425156      -2.64290657       0.00000000
Si       2.44072160      -2.52716544      -0.69622947       0.00000000
Si       0.36592131       3.32886150       1.32243114       0.00000000
Si      -0.76694949      -2.89790955       2.10498593       0.00000000
Si      -2.11054869       1.59870060      -2.54416084       0.00000000
Si       1.92833594       0.56275434      -3.15852536       0.00000000
