10
Lattice="16.28999089631971 0.0 0.0 0.0 16.28999089631971 0.0 0.0 0.0 34.31052061344573" Properties=species:S:1:pos:R:3:initial_magmoms:R:1 pbc="T T T"
Si      -1.90045656       0.74684763      -1.18093447       0.00000000
Si       1.28376603       1.41319008       1.46721273       0.00000000
Si       1.52632413      -0.51253227      -1.84501497       0.00000000
Si      -1.46759868      -1.42073235       1.44851349       0.00000000
Si      -2.78010027      -1.56649527      -1.65287594       0.00000000
Si       3.51675592       0.81788832      -0.98742302       0.00000000
Si       2.47691079      -0.13460427       2.81860196       0.00000000
Si       2.60809776       2.79817307      -0.11710187       0.00000000
Si      -0.23749191       2.58499494       2.83106355       0.00000000
Si      -3.01910715       2.53325790       0.08049253       0.00000000
