10
Lattice="16.28999089631971 0.0 0.0 0.0 16.28999089631971 0.0 0.0 0.0 34.31052061344573" Properties=species:S:1:pos:R:3:initial_magmoms:R:1 pbc="T T T"
Si       0.89125848      -2.16642339       0.10639698       0.00000000
Si      -0.22318929       0.76330053      -2.26627977       0.00000000
Si      -1.52632413       0.51253227       1.84501497       0.00000000
Si       1.99043179       1.33042059       0.85759194       0.00000000
Si       3.28196978      -1.57819149      -0.40987371       0.00000000
Si      -3.42678069       1.25937990       0.66408050       0.00000000
Si       1.30445337       2.53576656      -2.37621074       0.00000000
Si      -0.24255810       1.92572235       3.31222770       0.00000000
Si       1.08177363       3.31070534       1.72791309       0.00000000
Si       0.93853206      -0.79309494      -3.69864188       0.00000000
