10
Lattice="16.28999089631971 0.0 0.0 0.0 16.28999089631971 0.0 0.0 0.0 34.31052061344573" Properties=species:S:1:pos:R:3:initial_magmoms:R:1 pbc="T T T"
Si       0.70282553       2.15464572      -0.39687001       0.00000000
Si       1.52465603      -0.68823621       1.63084858       0.00000000
Si       0.81620393      -0.85550193      -2.02898808       0.00000000
Si      -2.25269264      -0.18407700       0.64970438       0.00000000
Si       1.22752643      -2.98439316       1.32339183       0.00000000
Si      -0.58273565      -2.74748769      -2.14320787       0.00000000
Si      -0.69885403      -3.47358186       0.09178069       0.00000000
Si       3.04593026       1.93692987      -0.31534817       0.00000000
Si      -3.34130447       0.17278803      -1.42447068       0.00000000
Si      -2.29250540       1.17273339       2.66606618       0.00000000
