10
Lattice="16.28999089631971 0.0 0.0 0.0 16.28999089631971 0.0 0.0 0.0 34.31052061344573" Properties=species:S:1:pos:R:3:initial_magmoms:R:1 pbc="T T T"
Si       2.22957255       0.49801788      -0.49963008       0.00000000
Si      -0.98565709      -2.06294931      -0.68240233       0.00000000
Si       0.43570635       0.49453182       2.38152888       0.00000000
Si      -1.26133276       1.44974484      -1.57073651       0.00000000
Si      -0.90785605       2.48746671       1.94094724       0.00000000
Si      -3.11353834      -1.78339662       0.27870451       0.00000000
Si       2.55582867      -0.41122476      -2.60595412       0.00000000
Si      -0.66404362      -1.23800742       3.46629090       0.00000000
Si       2.29981503       2.85821082      -0.86026816       0.00000000
Si      -1.22152000       0.09293445      -3.58709831       0.00000000
