10
Lattice="16.28999089631971 0.0 0.0 0.0 16.28999089631971 0.0 0.0 0.0 34.31052061344573" Properties=species:S:1:pos:R:3:initial_magmoms:R:1 pbc="T T T"
Si      -0.32625612       0.90924264       2.10632404       0.00000000
Si      -0.29712960      -2.29615695      -0.30745675       0.00000000
Si      -1.52465603       0.68823621      -1.63084858       0.00000000
Si       2.18605284       0.88531263      -0.43962095       0.00000000
Si       2.83849992      -0.93949317      -1.76301278       0.00000000
Si      -0.82183050       2.84288193      -2.02771859       0.00000000
Si       2.97416304       0.87697215       1.82017414       0.00000000
Si       1.52127423       2.62516608      -1.94619675       0.00000000
Si       1.50478875      -2.85768954      -1.68547096       0.00000000
Si      -2.55582867       0.41122476       2.60595412       0.00000000
