10
Lattice="16.28999089631971 0.0 0.0 0.0 16.28999089631971 0.0 0.0 0.0 34.31052061344573" Properties=species:S:1:pos:R:3:initial_magmoms:R:1 pbc="T T T"
Si      -0.06754217       0.97138899      -2.08913072       0.00000000
Si      -1.79284865      -0.93472020       1.30093044       0.00000000
Si       1.18385304       1.93979691       1.03525706       0.00000000
Si       0.00188581      -1.93717422       2.46676484       0.00000000
Si       2.69508612       0.79105869       2.45456744       0.00000000
Si      -2.73731027       0.81963135       2.49911281       0.00000000
Si       1.47691829      -3.39183864       0.87847848       0.00000000
Si       2.32316913       1.55962089      -2.60540141       0.00000000
Si      -0.78721808      -0.55319211      -3.78918366       0.00000000
Si      -0.95880065       3.13781238      -2.19552771       0.00000000
