10
Lattice="16.28999089631971 0.0 0.0 0.0 16.28999089631971 0.0 0.0 0.0 34.31052061344573" Properties=species:S:1:pos:R:3:initial_magmoms:R:1 pbc="T T T"
Si       1.35452002      -1.35351981       1.36055014       0.00000000
Si      -1.35249421      -1.35848826      -1.36825972       0.00000000
Si      -1.36302330       1.36127770       1.35965807       0.00000000
Si       1.37162452       1.34452873      -1.38656096       0.00000000
Si      -2.54563897       0.18930609      -2.71964895       0.00000000
Si       2.71668982      -2.71120986       0.00209294       0.00000000
Si      -2.71471288      -2.71321353       0.00082345       0.00000000
Si      -0.00250540      -2.71070487       2.71811527       0.00000000
Si       2.71269877       0.00346977       2.71808096       0.00000000
Si       2.71528888       2.71775748       0.00150966       0.00000000
