10
Lattice="16.28999089631971 0.0 0.0 0.0 16.28999089631971 0.0 0.0 0.0 34.31052061344573" Properties=species:S:1:pos:R:3:initial_magmoms:R:1 pbc="T T T"
Si       1.35436200      -1.35736425       1.35660443       0.00000000
Si       1.35587697       1.35668115      -1.35694754       0.00000000
Si      -1.35660300       1.35365337       1.36051583       0.00000000
Si      -1.35934360      -1.35788553      -1.35667305       0.00000000
Si       2.71205205      -2.71379997       0.00017155       0.00000000
Si       2.71330638      -0.00115659      -2.71403232       0.00000000
Si       2.71342041       2.71513316       0.00068621       0.00000000
Si      -0.00277582       2.71485135      -2.71372352       0.00000000
Si      -0.00189778      -2.71533123      -2.71399801       0.00000000
Si      -2.71685827      -0.00021177      -2.71396370       0.00000000
