10
Lattice="16.28999089631971 0.0 0.0 0.0 16.28999089631971 0.0 0.0 0.0 34.26581377546328" Properties=species:S:1:pos:R:3:initial_magmoms:R:1 pbc="T T T"
Si       1.34126973       1.35322659       1.34681856       0.00000000
Si      -1.33299767      -1.35879125       1.36343749       0.00000000
Si       1.35511623      -1.35389122      -1.35302068       0.00000000
Si      -1.35847849       1.35749457      -1.35346613       0.00000000
Si      -2.60422789       0.07742637       2.67222098       0.00000000
Si      -0.01415601       2.64430683       2.73650368       0.00000000
Si       2.53959471       0.05616792       2.83823894       0.00000000
Si       2.71285515       0.00109143      -2.71049592       0.00000000
Si      -0.00177561      -2.71413152      -2.71042738       0.00000000
Si      -0.00192222       2.71549413      -2.71053018       0.00000000
