10
Lattice="16.28999089631971 0.0 0.0 0.0 16.28999089631971 0.0 0.0 0.0 34.26581377546328" Properties=species:S:1:pos:R:3:initial_magmoms:R:1 pbc="T T T"
Si      -1.35511623       1.35389122       1.35302068       0.00000000
Si       1.35773892       1.35498265      -1.35747524       0.00000000
Si      -1.35689184      -1.36024030      -1.35740671       0.00000000
Si       1.35780408      -1.36124044       1.36206686       0.00000000
Si      -2.68811390      -0.00490003       2.71645817       0.00000000
Si      -0.01384650       2.70711781       2.69983924       0.00000000
Si      -2.71359472       2.71138579      -0.00044546       0.00000000
Si       2.71492398       2.71123918      -0.00078811       0.00000000
Si       0.00061902       2.71229803      -2.71471061       0.00000000
Si      -2.71410785      -0.00354470      -2.71440222       0.00000000
