10
Lattice="16.28999089631971 0.0 0.0 0.0 16.28999089631971 0.0 0.0 0.0 34.26581377546328" Properties=species:S:1:pos:R:3:initial_magmoms:R:1 pbc="T T T"
Si       1.35811359      -1.35677280      -1.36268364       0.00000000
Si      -1.35780408       1.36124044      -1.36206686       0.00000000
Si      -1.33931493      -1.35994935       1.38368860       0.00000000
Si       1.35811359       1.36470532       1.39670962       0.00000000
Si      -2.71292031       2.71513166      -0.00904618       0.00000000
Si       2.71484253      -2.71376238      -0.00301539       0.00000000
Si      -2.71818198      -2.71206822      -0.00017133       0.00000000
Si       2.71112841       2.71913900      -0.00051399       0.00000000
Si       0.00024435      -2.71390899      -2.71919944       0.00000000
Si      -2.71469592       0.00100014      -2.71947356       0.00000000
