10
Lattice="16.28999089631971 0.0 0.0 0.0 16.28999089631971 0.0 0.0 0.0 34.26581377546328" Properties=species:S:1:pos:R:3:initial_magmoms:R:1 pbc="T T T"
Si       2.15627472      -0.44918046       1.05826598       0.00000000
Si      -1.26869778      -2.11969064       0.00061678       0.00000000
Si      -0.20774637       0.91334772      -2.29056813       0.00000000
Si      -0.91812069       1.69459983       1.68968249       0.00000000
Si      -2.82864447      -1.87991487       1.77925337       0.00000000
Si      -1.16711334      -0.92914902      -3.59976281       0.00000000
Si       3.07195191       1.76586858       1.65243553       0.00000000
Si      -2.72999223      -1.98630486      -2.03025060       0.00000000
Si      -0.82924245       0.64211922       3.83297607       0.00000000
Si       1.95758559      -1.65545496       3.17890985       0.00000000
