10
Lattice="16.28999089631971 0.0 0.0 0.0 16.28999089631971 0.0 0.0 0.0 34.26581377546328" Properties=species:S:1:pos:R:3:initial_magmoms:R:1 pbc="T T T"
Si       2.27460528      -0.43344825      -0.04526517       0.00000000
Si      -1.32263397      -1.51854144       1.23600286       0.00000000
Si       0.15104088       1.81195625       1.53264218       0.00000000
Si      -0.98241732       0.23926589      -2.16405868       0.00000000
Si       1.94238702      -2.62264506      -0.82642336       0.00000000
Si       1.25092539       0.38430716       3.16222239       0.00000000
Si       2.87241570       1.12844903      -1.69053913       0.00000000
Si      -2.14835778       2.17281233       1.81252550       0.00000000
Si       0.14776659      -1.76429238       3.12415305       0.00000000
Si      -3.10208841       0.01838652       1.82414162       0.00000000
