10
Lattice="16.28999089631971 0.0 0.0 0.0 16.28999089631971 0.0 0.0 0.0 34.26581377546328" Properties=species:S:1:pos:R:3:initial_magmoms:R:1 pbc="T T T"
Si      -1.39437513      -1.25480241       1.49869985       0.00000000
Si       1.13656959       1.42990362       1.59908161       0.00000000
Si      -1.97830647       0.39275190      -1.49841061       0.00000000
Si       1.53186273      -0.53186850      -1.92995451       0.00000000
Si       1.69494192       1.73084508      -2.64987966       0.00000000
Si      -0.02270826      -1.34190504      -3.44590922       0.00000000
Si      -0.00107514       3.36225600      -1.81876188       0.00000000
Si      -2.26812186       2.66273082      -1.72549028       0.00000000
Si       2.29666194       3.12021918       0.45320611       0.00000000
Si       2.54062098       0.08340480       2.99465703       0.00000000
