10
Lattice="16.28999089631971 0.0 0.0 0.0 16.28999089631971 0.0 0.0 0.0 34.26581377546328" Properties=species:S:1:pos:R:3:initial_magmoms:R:1 pbc="T T T"
Si      -1.35739683      -1.35705474      -1.35826335       0.00000000
Si       1.35925389      -1.35610992       1.35761230       0.00000000
Si       1.35775521       1.35806472      -1.35805776       0.00000000
Si      -1.36067112       1.35990549       1.36097035       0.00000000
Si      -0.01360215      -2.70573642       2.70415674       0.00000000
Si      -2.71411600      -2.71500543      -0.00071958       0.00000000
Si       0.00029322      -2.71477737      -2.71519034       0.00000000
Si      -2.71465519       0.00055386      -2.71549873       0.00000000
Si      -2.71401826       2.71648782      -0.00051399       0.00000000
Si       2.71562445       2.71520091      -0.00154196       0.00000000
