10
Lattice="16.28999089631971 0.0 0.0 0.0 16.28999089631971 0.0 0.0 0.0 34.26581377546328" Properties=species:S:1:pos:R:3:initial_magmoms:R:1 pbc="T T T"
Si      -1.77653853       1.15118172      -1.01769524       0.00000000
Si       0.33746364      -1.63698210      -1.71037905       0.00000000
Si       1.88379189       1.40278077       0.51713995       0.00000000
Si      -0.82205856      -0.94931604       2.06616119       0.00000000
Si      -3.25104417      -0.60786135      -1.60836967       0.00000000
Si       2.45972484       0.75188124       2.73773725       0.00000000
Si      -1.84386510      -2.36444463      -2.30540524       0.00000000
Si       3.62100636       0.70921773      -0.95389226       0.00000000
Si      -3.08879577      -0.34798698       2.23721623       0.00000000
Si       0.51929262      -0.14126688       3.84034323       0.00000000
