10
Lattice="16.28999089631971 0.0 0.0 0.0 16.28999089631971 0.0 0.0 0.0 34.26581377546328" Properties=species:S:1:pos:R:3:initial_magmoms:R:1 pbc="T T T"
Si      -2.11338315      -0.38059956      -0.97191609       0.00000000
Si       1.60311519      -1.24727643      -1.24477491       0.00000000
Si       0.46279890       2.34520614      -0.15340813       0.00000000
Si      -0.11632689      -0.73836054       2.29656465       0.00000000
Si      -1.80393831       2.94653520       0.01764690       0.00000000
Si       3.15771876      -1.38228795       0.56826457       0.00000000
Si      -1.54922787      -2.33000757      -2.22597704       0.00000000
Si       2.27287854      -0.62532423       2.70874836       0.00000000
Si      -2.71673706       1.73964168      -1.81978985       0.00000000
Si       0.54604080      -3.27777606      -1.78196038       0.00000000
