10
Lattice="16.28999089631971 0.0 0.0 0.0 16.28999089631971 0.0 0.0 0.0 34.26581377546328" Properties=species:S:1:pos:R:3:initial_magmoms:R:1 pbc="T T T"
Si      -2.26704672      -0.69952518       0.09327160       0.00000000
Si       0.04973337       1.84915935      -1.52297921       0.00000000
Si       0.47838843       1.37547873       2.02223240       0.00000000
Si       1.69601706      -1.63141092      -0.83111778       0.00000000
Si       2.29773708      -0.24203682       2.27196799       0.00000000
Si      -2.16727047       2.32282368      -0.99374342       0.00000000
Si       3.39499890      -0.47429964       0.20689710       0.00000000
Si      -1.97723133      -2.96950410       0.32035127       0.00000000
Si      -1.41617115       0.82632654       3.42745163       0.00000000
Si       0.00107514      -3.36225600       1.81876188       0.00000000
