10
Lattice="16.28999089631971 0.0 0.0 0.0 16.28999089631971 0.0 0.0 0.0 34.26581377546328" Properties=species:S:1:pos:R:3:initial_magmoms:R:1 pbc="T T T"
Si      -1.34739477      -1.34767170       1.39571248       0.00000000
Si       1.36695906       1.36770840       1.39149778       0.00000000
Si      -1.62952128       1.14616440      -1.42419081       0.00000000
Si       1.40261787      -1.44440172      -1.49535067       0.00000000
Si      -0.46608948       1.19360088      -3.58528691       0.00000000
Si      -2.68424991      -2.70321147       0.02145726       0.00000000
Si       2.71989243      -2.70068652       0.03591745       0.00000000
Si      -2.69707014       2.72662020       0.02185817       0.00000000
Si       2.72732067       2.70837399       0.01770516       0.00000000
Si      -2.70462870       0.00939933       2.75154296       0.00000000
