10
Lattice="16.28999089631971 0.0 0.0 0.0 16.28999089631971 0.0 0.0 0.0 34.26581377546328" Properties=species:S:1:pos:R:3:initial_magmoms:R:1 pbc="T T T"
Si      -1.35786924      -1.35713619      -1.35651579       0.00000000
Si       1.35734796       1.35767908      -1.35655006       0.00000000
Si       1.35672894      -1.35698958       1.35966825       0.00000000
Si      -1.35811359       1.35677280       1.36268364       0.00000000
Si       2.71474479       0.00105885      -2.71429942       0.00000000
Si       2.71469592      -2.71476108       0.00047972       0.00000000
Si      -0.00039096      -2.71529865      -2.71426516       0.00000000
Si      -0.00001629       2.71527814      -2.71443649       0.00000000
Si      -2.71595025       0.00068418      -2.71409383       0.00000000
Si      -2.71562445      -2.71520091       0.00154196       0.00000000
