10
Lattice="16.28999089631971 0.0 0.0 0.0 16.28999089631971 0.0 0.0 0.0 34.26581377546328" Properties=species:S:1:pos:R:3:initial_magmoms:R:1 pbc="T T T"
Si      -1.04370030       0.89612919       1.94756715       0.00000000
Si       1.11107574       1.55666362      -1.51807920       0.00000000
Si       1.62914661      -1.58094450       1.13947601       0.00000000
Si      -1.66817745      -1.20233232      -1.56564017       0.00000000
Si      -2.13180714      -1.87079247       2.49540928       0.00000000
Si       3.07551942       2.29152474      -0.21679992       0.00000000
Si       2.31135552       0.13929579      -3.10095508       0.00000000
Si      -0.38874456      -2.57906538      -3.09053827       0.00000000
Si       2.80986210      -2.95950204      -0.42880263       0.00000000
Si      -3.08783466      -2.72658762      -0.44367400       0.00000000
