10
Lattice="16.28999089631971 0.0 0.0 0.0 16.28999089631971 0.0 0.0 0.0 34.26581377546328" Properties=species:S:1:pos:R:3:initial_magmoms:R:1 pbc="T T T"
Si      -0.19036494       0.98877109      -2.15374466       0.00000000
Si      -2.16290475       0.21688506       0.97414336       0.00000000
Si       1.18905597       1.49240576       1.46973011       0.00000000
Si       0.53988318      -2.40301935       0.05832045       0.00000000
Si       0.60608574       0.52243091       3.51450942       0.00000000
Si      -2.79500562       2.37929201       0.25956368       0.00000000
Si      -1.67436765      -0.08915517       3.32604734       0.00000000
Si      -0.21752037      -0.81184473      -3.64269790       0.00000000
Si      -2.03445810       2.50795043      -2.01298062       0.00000000
Si       3.50684604       1.13791419       1.34058218       0.00000000
