10
Lattice="16.28999089631971 0.0 0.0 0.0 16.28999089631971 0.0 0.0 0.0 34.26581377546328" Properties=species:S:1:pos:R:3:initial_magmoms:R:1 pbc="T T T"
Si      -2.18691621       0.72275472       0.33049396       0.00000000
Si       1.03757526       1.72224396       1.20146290       0.00000000
Si       0.63210087      -2.16240695       0.71457968       0.00000000
Si       0.76054752       0.12865842      -2.27254431       0.00000000
Si      -1.13575509      -3.29016365      -0.38429132       0.00000000
Si       0.71228025       3.53260053      -0.28077423       0.00000000
Si       1.53730359       2.40658686      -2.23241902       0.00000000
Si       2.79500562      -2.37929201      -0.25956368       0.00000000
Si       3.33223353       1.40846598       0.91136836       0.00000000
Si       2.60464068      -1.39052092      -2.41330835       0.00000000
