10
Lattice="16.28999089631971 0.0 0.0 0.0 16.28999089631971 0.0 0.0 0.0 34.26581377546328" Properties=species:S:1:pos:R:3:initial_magmoms:R:1 pbc="T T T"
Si      -1.47040056       0.24575094      -1.88815019       0.00000000
Si       1.10315880       2.14859954       0.03806934       0.00000000
Si      -1.16343180      -0.04743648       2.16109609       0.00000000
Si       1.12840830      -1.98397539      -1.99560784       0.00000000
Si      -2.97215937      -0.90699462       0.90667394       0.00000000
Si      -0.14776659       1.76429238      -3.12415305       0.00000000
Si       3.12321654       1.56811989      -1.05991074       0.00000000
Si       0.46608948      -1.19360088       3.58528691       0.00000000
Si       1.86870735      -2.63800260       2.08993624       0.00000000
Si       0.00327429       3.57624863      -1.59151088       0.00000000
