10
Lattice="16.28999089631971 0.0 0.0 0.0 16.28999089631971 0.0 0.0 0.0 34.26581377546328" Properties=species:S:1:pos:R:3:initial_magmoms:R:1 pbc="T T T"
Si      -1.35400851       1.35334062      -1.36234099       0.00000000
Si       1.34084619       1.36109466       1.37292913       0.00000000
Si       1.36275624      -1.36038279      -1.36042210       0.00000000
Si      -1.35301482      -1.35443368       1.39722360       0.00000000
Si       2.61034218      -0.08478945       2.75548695       0.00000000
Si      -2.71039536       2.71238274      -0.00325525       0.00000000
Si      -2.71119357      -0.00291591      -2.71902811       0.00000000
Si      -2.71112841      -2.71913900       0.00051399       0.00000000
Si       0.00345348       2.71218726      -2.71827426       0.00000000
Si       2.72165175       2.71054197       0.00287833       0.00000000
