10
Lattice="16.28999089631971 0.0 0.0 0.0 16.28999089631971 0.0 0.0 0.0 34.26581377546328" Properties=species:S:1:pos:R:3:initial_magmoms:R:1 pbc="T T T"
Si       2.27134728      -0.12919599       0.42650682       0.00000000
Si       0.10723707       0.46563336      -2.26682191       0.00000000
Si      -0.35116353       1.75860324       1.57523461       0.00000000
Si      -1.66825890      -1.74765636       0.21261949       0.00000000
Si       0.65259369       0.70752357       3.44608055       0.00000000
Si       2.27240613      -0.83395026       2.71604698       0.00000000
Si       1.52334306       3.12456861       1.29908626       0.00000000
Si      -0.59904846      -3.30249125       1.70585596       0.00000000
Si      -2.68778484       1.87918182       1.86224522       0.00000000
Si       3.19619574       2.01508929       0.22152861       0.00000000
