10
Lattice="16.28999089631971 0.0 0.0 0.0 16.28999089631971 0.0 0.0 0.0 34.26581377546328" Properties=species:S:1:pos:R:3:initial_magmoms:R:1 pbc="T T T"
Si       1.20027978      -1.41736783      -1.58287589       0.00000000
Si      -1.11107574      -1.55666362       1.51807920       0.00000000
Si       1.96444368       0.73486112       1.30127927       0.00000000
Si      -1.50817707       1.30083600      -1.56211079       0.00000000
Si       2.45517993       2.57048022      -0.20384744       0.00000000
Si       2.64072303      -2.76158605      -0.22865590       0.00000000
Si      -2.77925319      -2.75899594      -0.04756098       0.00000000
Si       2.56722255      -0.06580282      -2.96077356       0.00000000
Si      -0.15516225       2.65526967      -2.95933439       0.00000000
Si      -0.15144813      -2.77763170      -2.96183580       0.00000000
