10
Lattice="16.28999089631971 0.0 0.0 0.0 16.28999089631971 0.0 0.0 0.0 34.26581377546328" Properties=species:S:1:pos:R:3:initial_magmoms:R:1 pbc="T T T"
Si      -1.00569573       0.91138477       1.92618527       0.00000000
Si      -1.06921044       1.55483489      -1.49323647       0.00000000
Si       2.35348146       0.13001863       0.59502619       0.00000000
Si      -1.15937559      -2.17924755      -0.60928078       0.00000000
Si      -0.40729887      -0.53076471       3.69872254       0.00000000
Si       0.59904846       3.30249125      -1.70585596       0.00000000
Si       2.63749761      -1.50373383       2.23019174       0.00000000
Si       0.55527723      -3.77643318      -0.15608087       0.00000000
Si       3.56948109      -0.77759079      -1.16089215       0.00000000
Si       1.94880528      -2.58750753      -2.04998772       0.00000000
