10
Lattice="16.28999089631971 0.0 0.0 0.0 16.28999089631971 0.0 0.0 0.0 34.26581377546328" Properties=species:S:1:pos:R:3:initial_magmoms:R:1 pbc="T T T"
Si      -1.35815010       1.89447813       0.21703979       0.00000000
Si      -1.63664394      -1.66050486      -0.27882108       0.00000000
Si       0.65093537       0.15631884      -2.26521142       0.00000000
Si       1.67218805       0.06990039       1.75869387       0.00000000
Si      -0.14041003       3.12018660       1.76311417       0.00000000
Si      -2.59791684      -1.02335898      -2.36208093       0.00000000
Si      -3.22265463      -1.09739703       1.38848582       0.00000000
Si      -0.61976282      -3.66082631       0.35262969       0.00000000
Si      -3.55938522       1.11167847       0.65872637       0.00000000
Si      -1.86097353      -0.58033125       3.26313527       0.00000000
