10
Lattice="16.28999089631971 0.0 0.0 0.0 16.28999089631971 0.0 0.0 0.0 34.26581377546328" Properties=species:S:1:pos:R:3:initial_magmoms:R:1 pbc="T T T"
Si      -1.34506530       1.39018860      -1.30131696       0.00000000
Si      -1.37182977      -1.34239374       1.37165444       0.00000000
Si       1.34151408       1.37380086       1.37144884       0.00000000
Si       1.41677388      -1.43216793      -1.47273865       0.00000000
Si       2.69866656      -2.69938332       0.02207062       0.00000000
Si      -2.72238480      -2.71036278      -0.01777711       0.00000000
Si      -0.01487277      -2.69773803       2.73560592       0.00000000
Si       2.70010008       0.01677870       2.73533179       0.00000000
Si       2.71349046       2.72958498      -0.00989940       0.00000000
Si      -2.73191445       0.01847286       2.73512620       0.00000000
