10
Lattice="16.28999089631971 0.0 0.0 0.0 16.28999089631971 0.0 0.0 0.0 34.26581377546328" Properties=species:S:1:pos:R:3:initial_magmoms:R:1 pbc="T T T"
Si      -1.34084619      -1.36109466      -1.37292913       0.00000000
Si       1.38080556       1.34944731      -1.37005080       0.00000000
Si       1.26949599      -1.44588411       1.38255783       0.00000000
Si      -1.37920914       1.43563770       1.48384763       0.00000000
Si       2.80878696      -0.02746494       2.57990883       0.00000000
Si      -2.69386101      -2.71552834       0.02429448       0.00000000
Si      -2.69399133       2.71655298      -0.01816089       0.00000000
Si      -2.69485470      -0.00775404      -2.73527011       0.00000000
Si       0.01902672       2.70956457      -2.73461906       0.00000000
Si       2.73528648       2.71937115       0.02223853       0.00000000
