10
Lattice="16.28999089631971 0.0 0.0 0.0 16.28999089631971 0.0 0.0 0.0 34.26581377546328" Properties=species:S:1:pos:R:3:initial_magmoms:R:1 pbc="T T T"
Si      -1.00807407      -1.85948721      -0.96725593       0.00000000
Si      -1.57514526       1.72542051       0.36739826       0.00000000
Si       1.84511943       1.06660404      -1.09955631       0.00000000
Si       1.07000865      -0.70055145       2.04200378       0.00000000
Si       1.55953944       2.98491444       0.26956931       0.00000000
Si       3.28119696      -0.75776193      -0.74442522       0.00000000
Si      -1.34011314       1.84254561       2.76295691       0.00000000
Si      -0.58883463       3.54993309      -0.70621882       0.00000000
Si       0.52693263      -3.61333377      -0.56733940       0.00000000
Si      -1.06352523      -1.46126187      -3.27639615       0.00000000
