10
Lattice="16.28999089631971 0.0 0.0 0.0 16.28999089631971 0.0 0.0 0.0 34.26581377546328" Properties=species:S:1:pos:R:3:initial_magmoms:R:1 pbc="T T T"
Si      -0.22499748       1.75330899       1.45516713       0.00000000
Si       2.11857966      -0.78030729      -0.60534020       0.00000000
Si      -1.15870770      -1.72633275       1.12412491       0.00000000
Si      -1.07000865       0.70055145      -2.04200378       0.00000000
Si      -0.40728258      -3.41161470      -0.29379525       0.00000000
Si       1.86114879      -2.99395539       0.05304351       0.00000000
Si       2.21118831      -0.05721048      -2.78642900       0.00000000
Si      -2.41012179       2.54309706       0.72095312       0.00000000
Si       0.77511078       1.76715549      -3.14156009       0.00000000
Si       0.96332544       3.55009599       0.59225066       0.00000000
