10
Lattice="16.28999089631971 0.0 0.0 0.0 16.28999089631971 0.0 0.0 0.0 34.26581377546328" Properties=species:S:1:pos:R:3:initial_magmoms:R:1 pbc="T T T"
Si      -0.33821298       1.19995398       2.10525851       0.00000000
Si      -1.82825928      -1.06515423       1.50207705       0.00000000
Si      -1.23300639      -1.42765560      -1.82369616       0.00000000
Si       1.75962951       1.80068031       0.95026008       0.00000000
Si       1.58679261       1.32753726      -1.72696371       0.00000000
Si       0.62204994      -0.45998073      -3.22952049       0.00000000
Si      -1.72835271       2.97465174       1.24648820       0.00000000
Si      -3.42133983      -0.17914113      -1.36127874       0.00000000
Si      -0.60372369      -3.18894669       1.88211941       0.00000000
Si      -0.10438632       3.18243069      -2.15117473       0.00000000
