10
Lattice="16.28999089631971 0.0 0.0 0.0 16.28999089631971 0.0 0.0 0.0 34.26581377546328" Properties=species:S:1:pos:R:3:initial_magmoms:R:1 pbc="T T T"
Si      -1.83795183      -1.40605506       0.44305722       0.00000000
Si       0.08902485       2.18233872       0.92428658       0.00000000
Si      -0.23503212      -0.11712510      -2.39555865       0.00000000
Si       2.18512431      -0.78978807       0.73421400       0.00000000
Si       3.37344723       1.00699893      -0.12870247       0.00000000
Si       2.41012179      -2.54309706      -0.72095312       0.00000000
Si       1.34011314      -1.84254561      -2.76295691       0.00000000
Si       2.36076309       2.75237469       1.06203523       0.00000000
Si      -2.72279205      -0.64909134       2.58354101       0.00000000
Si      -0.99263115      -3.64285125       0.63912632       0.00000000
