10
Lattice="16.28999089631971 0.0 0.0 0.0 16.28999089631971 0.0 0.0 0.0 34.26581377546328" Properties=species:S:1:pos:R:3:initial_magmoms:R:1 pbc="T T T"
Si       1.35478880      -1.35676152       1.36302630       0.00000000
Si      -1.35996121       1.36011726       1.36347176       0.00000000
Si      -1.36823067      -1.35257499      -1.37921005       0.00000000
Si       1.36135367       1.35536058      -1.38758462       0.00000000
Si       2.71005164       2.71902906       0.00517414       0.00000000
Si       2.71474316      -2.71647479       0.00531120       0.00000000
Si      -2.71882611      -2.71241695       0.00366644       0.00000000
Si       2.71313045       0.00122175       2.72111832       0.00000000
Si      -2.71724598       2.71746522       0.00794967       0.00000000
Si      -0.00159642      -2.71462099       2.72142672       0.00000000
