10
Lattice="16.28999089631971 0.0 0.0 0.0 16.28999089631971 0.0 0.0 0.0 34.26581377546328" Properties=species:S:1:pos:R:3:initial_magmoms:R:1 pbc="T T T"
Si      -1.35172791      -1.36026387      -1.37895991       0.00000000
Si       1.36694277       1.35156501      -1.37789767       0.00000000
Si       1.44044325      -1.34421822       1.35421998       0.00000000
Si      -1.20027978       1.41736783       1.58287589       0.00000000
Si       0.76416390       2.15222895       2.88415516       0.00000000
Si       2.57942376       0.23042205       2.78019262       0.00000000
Si      -2.70010008      -2.71836117       0.01041681       0.00000000
Si      -2.70845685       2.71820383       0.02076509       0.00000000
Si       2.72331333      -2.71541268      -0.02662455       0.00000000
Si      -2.70845685      -0.00327429      -2.73862816       0.00000000
