10
Lattice="16.28999089631971 0.0 0.0 0.0 16.28999089631971 0.0 0.0 0.0 34.26581377546328" Properties=species:S:1:pos:R:3:initial_magmoms:R:1 pbc="T T T"
Si       1.35337320      -1.35575154      -1.36100462       0.00000000
Si      -1.35962856       1.36068971      -1.35898293       0.00000000
Si      -1.36694277      -1.35156501       1.37789767       0.00000000
Si       1.36203948       1.36728227       1.36792632       0.00000000
Si      -0.11204262       2.63628305       2.75692612       0.00000000
Si       2.70896184       2.71823804      -0.00376924       0.00000000
Si       2.71365336      -2.71379997      -0.00414617       0.00000000
Si       2.71164969       0.00242841      -2.71710922       0.00000000
Si       0.07350048      -2.69578323       2.73211766       0.00000000
Si      -0.00272043      -2.71248048      -2.71745188       0.00000000
