10
Lattice="16.28999089631971 0.0 0.0 0.0 16.28999089631971 0.0 0.0 0.0 34.26581377546328" Properties=species:S:1:pos:R:3:initial_magmoms:R:1 pbc="T T T"
Si      -1.71465282       1.59718563      -0.45319991       0.00000000
Si       0.73549350       0.34821504       2.26017434       0.00000000
Si      -0.28066041      -2.34225765      -0.61938920       0.00000000
Si       1.39352805       1.18892565      -1.89390685       0.00000000
Si      -3.53507661       0.83592135       0.89265921       0.00000000
Si      -0.55527723       3.77643318       0.15608087       0.00000000
Si      -2.37850290      -2.94298398       0.53560923       0.00000000
Si       2.08222038       2.27269935       2.38627260       0.00000000
Si       1.75643667      -1.64441034       3.07241164       0.00000000
Si      -3.76864263      -1.16828622      -0.32316107       0.00000000
