10
Lattice="16.28999089631971 0.0 0.0 0.0 16.28999089631971 0.0 0.0 0.0 34.26581377546328" Properties=species:S:1:pos:R:3:initial_magmoms:R:1 pbc="T T T"
Si       1.99922283       0.93672387       0.75837141       0.00000000
Si      -1.73721447       0.69356304       1.47103221       0.00000000
Si      -0.52466832       0.88402572      -2.16049503       0.00000000
Si       0.84108528      -2.27258532      -0.17050678       0.00000000
Si      -0.75823434      -1.12018185      -3.37631532       0.00000000
Si      -3.62100636      -0.70921773       0.95389226       0.00000000
Si       3.74590179       0.39631941      -0.79297991       0.00000000
Si      -1.16128152       0.04266351       3.69162951       0.00000000
Si       0.63190539      -2.89487961      -2.51754501       0.00000000
Si       2.04783219       3.29377284       0.80164916       0.00000000
