10
Lattice="16.28999089631971 0.0 0.0 0.0 16.28999089631971 0.0 0.0 0.0 34.26581377546328" Properties=species:S:1:pos:R:3:initial_magmoms:R:1 pbc="T T T"
Si       0.06778269       0.93290061       2.07599549       0.00000000
Si       0.69557943       2.00688402      -1.09537588       0.00000000
Si      -2.02768146      -0.78562013      -1.01742111       0.00000000
Si       1.66782463      -1.75521722       0.39227526       0.00000000
Si       1.96680966       0.57066639      -2.40415937       0.00000000
Si      -0.55330614      -1.27862069       3.00555900       0.00000000
Si      -0.76707981      -2.16403106      -2.40570133       0.00000000
Si       3.35882600      -0.75069435      -0.93456633       0.00000000
Si       2.22033419       2.01867798       1.98800083       0.00000000
Si       0.47241000      -3.51083939      -0.85709128       0.00000000
