10
Lattice="16.28999089631971 0.0 0.0 0.0 16.28999089631971 0.0 0.0 0.0 34.26581377546328" Properties=species:S:1:pos:R:3:initial_magmoms:R:1 pbc="T T T"
Si      -1.61981244       1.54147383       0.73003357       0.00000000
Si      -0.00105885       0.70475427      -2.28954016       0.00000000
Si      -0.51797313      -2.33852235      -0.41516483       0.00000000
Si       2.14261623       0.83238642       0.80356805       0.00000000
Si       2.30533052      -1.14069910       2.29927166       0.00000000
Si       1.31031873       3.18010122       0.41358860       0.00000000
Si       1.31911533      -1.03461048      -3.10064669       0.00000000
Si      -2.27240613       0.83395026      -2.71604698       0.00000000
Si      -0.61546878       3.41663202       1.67816917       0.00000000
Si      -2.62356966       2.59255350      -1.14081238       0.00000000
