10
Lattice="16.28999089631971 0.0 0.0 0.0 16.28999089631971 0.0 0.0 0.0 34.26581377546328" Properties=species:S:1:pos:R:3:initial_magmoms:R:1 pbc="T T T"
Si       1.21599963      -0.90760942      -1.75591834       0.00000000
Si       0.28401615      -1.63375246       1.63516555       0.00000000
Si       0.51797313       2.33852235       0.41516483       0.00000000
Si      -2.35348146      -0.13001863      -0.59502619       0.00000000
Si       1.83708846       1.30391187      -2.68548186       0.00000000
Si       0.51691428       3.04327662      -1.87437533       0.00000000
Si      -3.35917719       0.78136614       1.33115908       0.00000000
Si      -0.43974855      -0.70118254       3.65472521       0.00000000
Si      -0.40467618      -2.71752616      -2.64501391       0.00000000
Si       2.31008490      -2.71770535       1.82612903       0.00000000
