10
Lattice="16.28999089631971 0.0 0.0 0.0 16.28999089631971 0.0 0.0 0.0 34.26581377546328" Properties=species:S:1:pos:R:3:initial_magmoms:R:1 pbc="T T T"
Si      -1.28189268       1.26721539      -1.49480927       0.00000000
Si      -1.35930276      -1.35410625       1.35725936       0.00000000
Si       1.35746199       1.36091547       1.35695097       0.00000000
Si       1.32621777      -1.27518120      -1.49254772       0.00000000
Si      -2.02510764      -0.73684557      -2.79875583       0.00000000
Si       0.46615464       2.22001749      -2.73885916       0.00000000
Si       2.26243665       0.41378229      -2.93270097       0.00000000
Si      -0.21365964      -2.46066966      -2.86070846       0.00000000
Si      -2.69866656       2.69938332      -0.02207062       0.00000000
Si       2.70647729      -2.70912474      -0.03020876       0.00000000
