10
Lattice="16.28999089631971 0.0 0.0 0.0 16.28999089631971 0.0 0.0 0.0 34.26581377546328" Properties=species:S:1:pos:R:3:initial_magmoms:R:1 pbc="T T T"
Si      -1.35752715       1.35822762      -1.35757803       0.00000000
Si       1.35860296      -1.35795069      -1.35870881       0.00000000
Si      -1.36006839      -1.36858806       1.35223256       0.00000000
Si       1.37078462       1.35544203       1.36347176       0.00000000
Si       0.11285355      -2.63801889       2.66697831       0.00000000
Si      -2.55573810       0.04155579       2.78882761       0.00000000
Si       2.71528955       2.71153566      -0.00274127       0.00000000
Si       0.00049095      -2.71450044      -2.71529313       0.00000000
Si      -2.71456560       0.00048870      -2.71597845       0.00000000
Si       2.71515923       0.00004887      -2.71577285       0.00000000
