10
Lattice="16.28999089631971 0.0 0.0 0.0 16.28999089631971 0.0 0.0 0.0 34.26581377546328" Properties=species:S:1:pos:R:3:initial_magmoms:R:1 pbc="T T T"
Si      -1.81698660      -0.69804279      -1.35576195       0.00000000
Si      -0.17151741      -0.56795085       2.29988844       0.00000000
Si       1.71570257      -1.67804919      -0.06726383       0.00000000
Si       0.77823066       1.89587907      -1.32266115       0.00000000
Si       1.44521200       1.20032865       2.81620601       0.00000000
Si       2.10953612       0.61584345      -2.78111780       0.00000000
Si      -0.62131689      -2.10818664      -2.79235699       0.00000000
Si       0.85160505      -3.37761747      -1.47761125       0.00000000
Si       3.44167694      -0.81073701      -1.41332854       0.00000000
Si      -1.09636587      -2.71223613       2.50486665       0.00000000
