10
Lattice="16.28999089631971 0.0 0.0 0.0 16.28999089631971 0.0 0.0 0.0 34.26581377546328" Properties=species:S:1:pos:R:3:initial_magmoms:R:1 pbc="T T T"
Si       1.35847849      -1.35749457       1.35346613       0.00000000
Si      -1.35811201      -1.35654975      -1.35658433       0.00000000
Si       1.35655627       1.35799956      -1.35706405       0.00000000
Si      -1.35860296       1.35795069       1.35870881       0.00000000
Si       2.69974822      -0.00426798       2.70028470       0.00000000
Si       2.71359472      -2.71138579       0.00044546       0.00000000
Si       2.71421374       0.00091224      -2.71426516       0.00000000
Si      -0.00051313      -2.71493050      -2.71395677       0.00000000
Si      -2.71609753      -2.71305226      -0.00034266       0.00000000
Si      -2.71867135      -0.01063737       2.71094137       0.00000000
