10
Lattice="16.28999089631971 0.0 0.0 0.0 16.28999089631971 0.0 0.0 0.0 34.26581377546328" Properties=species:S:1:pos:R:3:initial_magmoms:R:1 pbc="T T T"
Si      -1.44348948      -1.41936399       1.16729986       0.00000000
Si       1.19566971      -1.41014385      -1.43659505       0.00000000
Si       1.81698660       0.69804279       1.35576195       0.00000000
Si      -1.51698996       1.32747210      -1.39037044       0.00000000
Si       2.59521726       2.59392186       0.03310079       0.00000000
Si       2.55573810      -0.04155579      -2.78882761       0.00000000
Si       2.66859165      -2.67957468      -0.12184930       0.00000000
Si      -0.16237872       2.67662619      -2.78625767       0.00000000
Si       3.53268917      -0.98000640       1.28849812       0.00000000
Si      -0.16177599      -2.75582817      -2.79074650       0.00000000
