10
Lattice="16.28999089631971 0.0 0.0 0.0 16.28999089631971 0.0 0.0 0.0 34.26581377546328" Properties=species:S:1:pos:R:3:initial_magmoms:R:1 pbc="T T T"
Si      -1.35358497      -1.35570267       1.35784188       0.00000000
Si       1.36381250       1.35267273       1.35455236       0.00000000
Si      -1.27622376       1.29455001      -1.49228388       0.00000000
Si       1.24012905      -1.38323277      -1.45234362       0.00000000
Si       0.54316303       1.94424408      -2.90117641       0.00000000
Si       2.35264157       0.42599979      -2.63916782       0.00000000
Si      -2.24489232      -0.49660065      -2.73796824       0.00000000
Si      -0.44861031      -2.30283585      -2.93181006       0.00000000
Si      -2.69622306       2.71235016      -0.03107911       0.00000000
Si      -2.70961344      -0.00045612       2.71415208       0.00000000
