10
Lattice="16.28999089631971 0.0 0.0 0.0 16.28999089631971 0.0 0.0 0.0 34.26581377546328" Properties=species:S:1:pos:R:3:initial_magmoms:R:1 pbc="T T T"
Si       1.27622376      -1.29455001       1.49228388       0.00000000
Si      -0.96866856      -1.79115066      -1.24568437       0.00000000
Si       1.81938679       0.64969407      -1.40889253       0.00000000
Si      -1.41999930       1.41780015       1.46120477       0.00000000
Si       2.48949874       2.56642434       0.05700121       0.00000000
Si       2.51635281      -2.67778278       0.03994025       0.00000000
Si      -2.71671588      -2.74395276      -0.00163448       0.00000000
Si       2.64003626       0.05812272       2.84683624       0.00000000
Si      -0.07736121      -2.65025268       2.85012576       0.00000000
Si       3.62886533      -0.86855022      -1.14688394       0.00000000
