10
Lattice="16.28999089631971 0.0 0.0 0.0 16.28999089631971 0.0 0.0 0.0 34.26581377546328" Properties=species:S:1:pos:R:3:initial_magmoms:R:1 pbc="T T T"
Si      -1.77738561      -1.24129800       0.78602394       0.00000000
Si       1.67899401      -0.03266145       1.59476613       0.00000000
Si       1.42356681      -1.28956527      -1.37364871       0.00000000
Si      -1.02094317       1.99262538      -0.81223730       0.00000000
Si       2.62641294       0.79529409      -1.79977861       0.00000000
Si      -0.42313275      -2.18404917      -2.64700133       0.00000000
Si       2.03100462       2.23645410       1.75948199       0.00000000
Si      -1.49180562      -3.15960840      -0.58310168       0.00000000
Si      -1.30359096      -1.37666790       3.15070907       0.00000000
Si       2.35185246       2.83315680      -0.49517555       0.00000000
