10
Lattice="16.28999089631971 0.0 0.0 0.0 16.28999089631971 0.0 0.0 0.0 34.26581377546328" Properties=species:S:1:pos:R:3:initial_magmoms:R:1 pbc="T T T"
Si       1.13078664      -0.56347110       2.02463100       0.00000000
Si       1.82467548      -0.47978937      -1.50584629       0.00000000
Si      -2.00099844      -1.17680589      -0.66342079       0.00000000
Si      -1.01880918       2.19872646       0.36613042       0.00000000
Si       3.39933597       1.17923310      -0.57117717       0.00000000
Si      -0.61726068      -1.51627320       3.26868089       0.00000000
Si       2.27818908      -2.78619273      -0.99538818       0.00000000
Si      -2.49021972      -0.57814839      -2.92702171       0.00000000
Si      -3.90311658       0.01008351       0.11712062       0.00000000
Si      -3.19943745       2.20654566      -0.58591148       0.00000000
