10
Lattice="16.28999089631971 0.0 0.0 0.0 16.28999089631971 0.0 0.0 0.0 34.26581377546328" Properties=species:S:1:pos:R:3:initial_magmoms:R:1 pbc="T T T"
Si      -1.12161537      -1.52697573      -1.36655568       0.00000000
Si       1.52601462      -1.41519375       1.16342783       0.00000000
Si       1.68094881       1.14722325      -1.35175284       0.00000000
Si      -0.96544314       1.56952521       1.62180187       0.00000000
Si      -2.42273025       2.74931217      -0.09707510       0.00000000
Si      -2.27884068      -0.19652256      -2.90389228       0.00000000
Si      -2.81246850      -2.43480114       0.21909574       0.00000000
Si       2.80363347       0.15117120       2.53635695       0.00000000
Si       0.44145900       2.49403158      -2.90036290       0.00000000
Si      -3.56171076       1.17467190      -1.52304774       0.00000000
