10
Lattice="16.28999089631971 0.0 0.0 0.0 16.28999089631971 0.0 0.0 0.0 34.26581377546328" Properties=species:S:1:pos:R:3:initial_magmoms:R:1 pbc="T T T"
Si       1.34672688       1.92448431       0.12609827       0.00000000
Si       1.02094317      -1.99262538       0.81223730       0.00000000
Si      -1.74667896       0.54040446       1.55135132       0.00000000
Si      -0.73549350      -0.34821504      -2.26017434       0.00000000
Si       3.37279563       0.84053142       0.31706175       0.00000000
Si       0.62296218       2.85705423       2.14565793       0.00000000
Si      -0.75644244      -3.23392338       1.59826125       0.00000000
Si      -1.69806960       2.89745343       1.59462907       0.00000000
Si      -3.74590179      -0.39631941       0.79297991       0.00000000
Si      -2.45014632       1.24897059      -2.71337425       0.00000000
