10
Lattice="16.28999089631971 0.0 0.0 0.0 16.28999089631971 0.0 0.0 0.0 34.26581377546328" Properties=species:S:1:pos:R:3:initial_magmoms:R:1 pbc="T T T"
Si       1.87578765       1.38515499      -0.38233816       0.00000000
Si      -1.15755111       0.63286650       1.96661895       0.00000000
Si      -0.98026704       0.49287024      -2.12845648       0.00000000
Si       0.59867379      -2.31849054       0.10437373       0.00000000
Si       0.91336401      -0.35618085      -3.22420928       0.00000000
Si       2.89414723       0.15252327      -2.09504729       0.00000000
Si      -2.47567275       2.39521644       1.13951027       0.00000000
Si       0.85890654       3.38547644      -1.01378893       0.00000000
Si      -3.15385803      -0.27363942      -1.94760141       0.00000000
Si      -0.65826261      -3.16102563       1.87427253       0.00000000
