10
Lattice="16.28999089631971 0.0 0.0 0.0 16.28999089631971 0.0 0.0 0.0 34.26581377546328" Properties=species:S:1:pos:R:3:initial_magmoms:R:1 pbc="T T T"
Si       1.84236642      -1.41245703       0.43757469       0.00000000
Si      -1.46163654      -1.85963382      -0.17506414       0.00000000
Si      -0.11323179       0.32219991       2.38507330       0.00000000
Si      -0.26489169       0.39982176      -2.37681524       0.00000000
Si      -0.40304718       2.59217883       2.15799363       0.00000000
Si      -2.66924030       0.21756924      -2.34775781       0.00000000
Si       0.91171872      -1.50985494      -3.17195389       0.00000000
Si      -1.08960552      -2.99796273       1.98224417       0.00000000
Si       2.72831436      -1.99541097      -1.66720410       0.00000000
Si      -0.85664223      -2.83271697      -2.35217810       0.00000000
