10
Lattice="16.28999089631971 0.0 0.0 0.0 16.28999089631971 0.0 0.0 0.0 34.26581377546328" Properties=species:S:1:pos:R:3:initial_magmoms:R:1 pbc="T T T"
Si      -1.35721601       1.35669559      -1.35699552       0.00000000
Si      -1.35683320      -1.35648603       1.35781790       0.00000000
Si       1.35685926      -1.35708876      -1.35730391       0.00000000
Si       1.35689184       1.36024030       1.35740671       0.00000000
Si       0.00177561       2.71413152       2.71042738       0.00000000
Si       2.71474479       0.00051566      -2.71498474       0.00000000
Si       2.71494027      -2.71490913       0.00027413       0.00000000
Si       2.71463076       2.71522295      -0.00006853       0.00000000
Si      -2.71481488       2.71507634       0.00037692       0.00000000
Si       0.00089595      -2.71523493      -2.71471061       0.00000000
