10
Lattice="16.28999089631971 0.0 0.0 0.0 16.28999089631971 0.0 0.0 0.0 34.26581377546328" Properties=species:S:1:pos:R:3:initial_magmoms:R:1 pbc="T T T"
Si       2.26673721      -0.60132906      -0.17105504       0.00000000
Si      -0.72659916      -0.40659840       2.20641125       0.00000000
Si      -0.80155597       2.20605696      -0.28320711       0.00000000
Si      -0.91279875      -1.20689352      -1.83743676       0.00000000
Si       1.80393831      -2.94653520      -0.01764690       0.00000000
Si      -0.30944484      -3.32713476      -0.98956299       0.00000000
Si       0.40009869       1.50343668       3.16160561       0.00000000
Si      -2.78233919       1.69735284      -1.41236910       0.00000000
Si      -3.13434980      -0.57176271      -1.57708496       0.00000000
Si      -3.09702941      -0.26495685       1.91621391       0.00000000
