10
Lattice="16.28999089631971 0.0 0.0 0.0 16.28999089631971 0.0 0.0 0.0 34.26581377546328" Properties=species:S:1:pos:R:3:initial_magmoms:R:1 pbc="T T T"
Si       0.72659916       0.40659840      -2.20641125       0.00000000
Si      -2.37043025       0.14164155      -0.29019734       0.00000000
Si       0.47190501      -2.12745771       1.03866593       0.00000000
Si       1.12669785       1.91003508       0.95519436       0.00000000
Si      -0.07495681       2.61265536      -2.48961836       0.00000000
Si       0.93348216       1.72851561       3.22506593       0.00000000
Si      -1.41667614      -3.49355340       0.40742075       0.00000000
Si       2.99333637      -0.19473066      -2.37746629       0.00000000
Si      -2.96910404       2.46013209      -0.39457107       0.00000000
Si      -3.03775010      -1.41566616      -1.97857772       0.00000000
