10
Lattice="16.28999089631971 0.0 0.0 0.0 16.28999089631971 0.0 0.0 0.0 34.26581377546328" Properties=species:S:1:pos:R:3:initial_magmoms:R:1 pbc="T T T"
Si      -1.34486715      -1.33890768       1.37982684       0.00000000
Si       1.36874778       1.37499003       1.37657159       0.00000000
Si      -1.31288988       1.32142851      -1.52030305       0.00000000
Si       1.21896286      -1.55279538      -1.41206414       0.00000000
Si       1.99224428       0.29370870      -2.69333357       0.00000000
Si       0.57129038       2.23202322      -2.79400659       0.00000000
Si      -2.69053518      -2.70141957      -0.00786058       0.00000000
Si      -2.69364657       2.72635956      -0.01099933       0.00000000
Si       0.00915423      -2.69768916       2.73678809       0.00000000
Si      -2.70465861       0.01672983       2.73620557       0.00000000
