10
Lattice="16.28999089631971 0.0 0.0 0.0 16.28999089631971 0.0 0.0 0.0 34.26581377546328" Properties=species:S:1:pos:R:3:initial_magmoms:R:1 pbc="T T T"
Si       2.14815904      -0.68108490      -0.63398644       0.00000000
Si       0.06761327       2.39902830      -0.12904513       0.00000000
Si      -1.27761885      -1.56636495      -1.37292913       0.00000000
Si      -0.77975506      -0.61968789       2.25198481       0.00000000
Si       1.24492741      -1.13575509       3.37802861       0.00000000
Si      -2.80363347      -0.15117120      -2.53635695       0.00000000
Si       0.07272996       2.75167422      -2.63874326       0.00000000
Si      -1.84583034      -3.37131324       0.09416251       0.00000000
Si      -2.14840080       3.22827075      -0.02545951       0.00000000
Si       2.68367650      -2.88481239       0.16471586       0.00000000
