10
Lattice="16.28999089631971 0.0 0.0 0.0 16.28999089631971 0.0 0.0 0.0 34.397273925272025" Properties=species:S:1:pos:R:3:initial_magmoms:R:1 pbc="T T T"
Si      -2.11962778      -0.10503792       1.00244031       0.00000000
Si      -0.15509872       0.69015843      -2.27589690       0.00000000
Si       0.33499082      -2.37405573      -0.18251204       0.00000000
Si       0.92292787       1.35063648       1.81662424       0.00000000
Si      -1.73259367      -0.82551204      -3.11938732       0.00000000
Si       2.60938270      -2.81113272      -0.57171741       0.00000000
Si       0.79624054      -3.30255315       1.92501011       0.00000000
Si       2.09922877      -0.14257008       3.31294089       0.00000000
Si      -0.88921150       3.80650941      -0.45572974       0.00000000
Si       1.24545358       3.69407745       0.61013919       0.00000000
