10
Lattice="16.28999089631971 0.0 0.0 0.0 16.28999089631971 0.0 0.0 0.0 34.397273925272025" Properties=species:S:1:pos:R:3:initial_magmoms:R:1 pbc="T T T"
Si       1.10154609       1.56235761      -1.34682601       0.00000000
Si      -1.26280080       1.40748858       1.39728684       0.00000000
Si      -1.72297701      -1.16154216      -1.25739305       0.00000000
Si       1.82480580      -1.66708602       0.37001168       0.00000000
Si      -1.37805255      -3.02037125       1.18058390       0.00000000
Si       2.35571319       0.13690116      -2.69918999       0.00000000
Si      -0.56723409      -1.77222168       3.22512460       0.00000000
Si      -0.37667367      -2.56705639      -2.69145060       0.00000000
Si      -0.93072915       0.63127008       3.62495874       0.00000000
Si       2.08238328       3.23711622       0.01743943       0.00000000
