10
Lattice="16.28999089631971 0.0 0.0 0.0 16.28999089631971 0.0 0.0 0.0 34.397273925272025" Properties=species:S:1:pos:R:3:initial_magmoms:R:1 pbc="T T T"
Si       1.34289873       1.35852084       1.38183902       0.00000000
Si      -1.37236734      -1.35397593       1.38211420       0.00000000
Si      -1.40014179       1.28961414      -1.46978946       0.00000000
Si       1.40423058      -1.37065689      -1.45818725       0.00000000
Si      -2.09168487      -0.60683508      -2.68101030       0.00000000
Si      -0.39179079      -2.35628334      -2.97634760       0.00000000
Si       2.70019782       2.71534752      -0.00014447       0.00000000
Si       2.70552465      -2.71844262       0.00973099       0.00000000
Si      -2.72142369       2.70966231      -0.00115231       0.00000000
Si      -2.70746316      -2.72528442       0.03725227       0.00000000
