10
Lattice="16.28999089631971 0.0 0.0 0.0 16.28999089631971 0.0 0.0 0.0 34.397273925272025" Properties=species:S:1:pos:R:3:initial_magmoms:R:1 pbc="T T T"
Si      -0.20487933      -1.10227914      -1.97911706       0.00000000
Si      -2.08217151      -0.57019887       0.78332956       0.00000000
Si       1.14881967      -1.13130792       1.69489222       0.00000000
Si       0.68784525       2.26199682      -0.11660682       0.00000000
Si      -2.02017177       0.66976335       2.72313051       0.00000000
Si       3.29716116      -0.71169381       0.86698377       0.00000000
Si      -0.02728575      -0.21093921       3.55692089       0.00000000
Si      -0.76009140      -3.27264471      -1.20576271       0.00000000
Si       1.96292871      -1.08732492      -2.81294184       0.00000000
Si       3.35886768       0.18839385      -1.30843863       0.00000000
