10
Lattice="16.28999089631971 0.0 0.0 0.0 16.28999089631971 0.0 0.0 0.0 34.397273925272025" Properties=species:S:1:pos:R:3:initial_magmoms:R:1 pbc="T T T"
Si       1.82276955       1.24238943       0.83784927       0.00000000
Si       0.16594623       1.01066418      -2.13404246       0.00000000
Si       0.59052879      -2.29200300      -0.07722192       0.00000000
Si      -2.08049364      -0.21840003       1.11460989       0.00000000
Si       2.66579334       0.46685511      -2.09214656       0.00000000
Si      -3.32488674       1.20366810      -0.35085239       0.00000000
Si      -0.89277345      -0.49456440      -3.51302995       0.00000000
Si       3.03842709      -0.09713727       2.35752168       0.00000000
Si       0.52882227      -3.19209066       2.09820048       0.00000000
Si      -1.98956286       0.68931135       3.26309921       0.00000000
