10
Lattice="16.28999089631971 0.0 0.0 0.0 16.28999089631971 0.0 0.0 0.0 34.397273925272025" Properties=species:S:1:pos:R:3:initial_magmoms:R:1 pbc="T T T"
Si      -0.91197075      -0.36820939       2.15124111       0.00000000
Si      -0.71567625       1.56939489      -1.62179797       0.00000000
Si       2.22035909       0.83448783       0.02951288       0.00000000
Si      -0.32396691      -2.15510903      -0.95995966       0.00000000
Si      -0.18385662       0.29950794      -3.53796798       0.00000000
Si       1.85321507      -3.08823281      -0.99012608       0.00000000
Si      -3.06790338       0.57254463       2.10053950       0.00000000
Si       3.39377666      -0.42968296       1.59011807       0.00000000
Si      -1.21858113      -1.78120057      -3.13847782       0.00000000
Si      -0.96349602      -2.70575990       2.54147840       0.00000000
