10
Lattice="16.28999089631971 0.0 0.0 0.0 16.28999089631971 0.0 0.0 0.0 34.397273925272025" Properties=species:S:1:pos:R:3:initial_magmoms:R:1 pbc="T T T"
Si       2.28231045      -0.45126558       0.09999293       0.00000000
Si       0.21401802       2.06975853      -1.09066937       0.00000000
Si      -0.60303951       0.16734717       2.28232919       0.00000000
Si      -1.33597548      -1.85373684      -0.75615570       0.00000000
Si       2.69373069      -0.39688956      -2.20108279       0.00000000
Si      -0.31311009      -3.43692773       0.61082713       0.00000000
Si      -0.35634375      -2.16956736       2.73847170       0.00000000
Si      -2.03048334       2.59519248      -1.42783164       0.00000000
Si       1.42873074       1.44340803      -3.02813131       0.00000000
Si      -3.50298531      -1.10167641      -0.19472308       0.00000000
