10
Lattice="16.28999089631971 0.0 0.0 0.0 16.28999089631971 0.0 0.0 0.0 34.397273925272025" Properties=species:S:1:pos:R:3:initial_magmoms:R:1 pbc="T T T"
Si      -1.33255458      -1.36687761      -1.38290877       0.00000000
Si       1.32261768      -1.43334081       1.33224156       0.00000000
Si       1.36655181       1.36402686      -1.38029458       0.00000000
Si      -1.92099825       0.81779058       1.27173672       0.00000000
Si      -2.70162319       2.70314631      -0.00443725       0.00000000
Si      -2.68755841      -2.72308527      -0.02614194       0.00000000
Si       2.72008791       2.70831024       0.00037837       0.00000000
Si      -2.69751649      -0.00042354      -2.73544474       0.00000000
Si       0.01589904       2.71437012      -2.73774936       0.00000000
Si       0.01614339      -2.71443528      -2.74098270       0.00000000
