10
Lattice="16.28999089631971 0.0 0.0 0.0 16.28999089631971 0.0 0.0 0.0 34.397273925272025" Properties=species:S:1:pos:R:3:initial_magmoms:R:1 pbc="T T T"
Si       1.17341757      -1.26417079       1.56060519       0.00000000
Si      -2.22035909      -0.83448783      -0.02951288       0.00000000
Si      -0.09720243       2.38615920      -0.04963529       0.00000000
Si       1.22487768      -0.31628664      -2.03872756       0.00000000
Si      -2.93603534       0.73490706      -1.65131085       0.00000000
Si       1.98496908       2.95635807      -0.83296485       0.00000000
Si       3.36673575      -0.44771436       1.43735969       0.00000000
Si       3.13378875       1.82505015       0.86192737       0.00000000
Si      -2.02186756       2.89196370      -1.23420928       0.00000000
Si       0.78710022      -3.51714851       1.07188845       0.00000000
