10
Lattice="16.28999089631971 0.0 0.0 0.0 16.28999089631971 0.0 0.0 0.0 34.397273925272025" Properties=species:S:1:pos:R:3:initial_magmoms:R:1 pbc="T T T"
Si       0.60672105      -2.36029068       0.42109166       0.00000000
Si      -1.66899195       1.04055633      -1.50749577       0.00000000
Si      -0.59093604       1.46891817       1.90984091       0.00000000
Si       1.49468895       2.93172759      -1.08588815       0.00000000
Si      -0.95462658       3.26806722      -0.79977146       0.00000000
Si      -2.08626030       0.05820417       3.12244868       0.00000000
Si      -0.45199863      -3.86551926      -0.95789582       0.00000000
Si      -3.93659253       0.54038817      -0.55297088       0.00000000
Si       0.72580095      -2.77568568      -2.87148603       0.00000000
Si       3.52338039       1.56465450      -1.38607332       0.00000000
