10
Lattice="16.28999089631971 0.0 0.0 0.0 16.28999089631971 0.0 0.0 0.0 34.397273925272025" Properties=species:S:1:pos:R:3:initial_magmoms:R:1 pbc="T T T"
Si      -1.05871968      -1.50522858      -1.37898748       0.00000000
Si      -0.16594623      -1.01066418       2.13404246       0.00000000
Si      -0.60672105       2.36029068      -0.42109166       0.00000000
Si       2.49984711      -0.54380907       0.04189590       0.00000000
Si       0.11907990      -0.41539500      -3.29257769       0.00000000
Si       1.65682332       0.23172525       2.97189173       0.00000000
Si       3.22470324       1.35783666      -1.72099977       0.00000000
Si       0.42458256      -3.30266718       2.05682054       0.00000000
Si      -3.49083297       0.19300392       1.78319007       0.00000000
Si      -3.54331935      -1.49569893      -1.05744159       0.00000000
