10
Lattice="16.28999089631971 0.0 0.0 0.0 16.28999089631971 0.0 0.0 0.0 34.397273925272025" Properties=species:S:1:pos:R:3:initial_magmoms:R:1 pbc="T T T"
Si      -0.96951564      -0.27205929      -2.13947724       0.00000000
Si       0.36849609       2.33082207       0.43928783       0.00000000
Si       2.24070579      -0.95312790       0.17067937       0.00000000
Si      -1.40657634      -0.86697009       1.82573953       0.00000000
Si       0.51649074      -1.61367111       2.95913033       0.00000000
Si       1.64172249      -2.92969134       1.27483248       0.00000000
Si      -1.80605601       3.23406999       0.35298502       0.00000000
Si       1.89081288       2.21483727       2.32560099       0.00000000
Si       0.83670327       0.39553749      -3.67535077       0.00000000
Si       3.42842598       0.60224130       1.58509606       0.00000000
