10
Lattice="16.28999089631971 0.0 0.0 0.0 16.28999089631971 0.0 0.0 0.0 34.397273925272025" Properties=species:S:1:pos:R:3:initial_magmoms:R:1 pbc="T T T"
Si       0.96881517      -1.18817631      -1.75071903       0.00000000
Si       1.63012401       1.59746256       0.53484351       0.00000000
Si      -1.78176762       1.09468800      -1.06225721       0.00000000
Si      -1.07220780      -1.07162136       1.83193104       0.00000000
Si       0.51108246       0.25194114      -3.57845360       0.00000000
Si       0.29232405       3.20689827       1.68223402       0.00000000
Si      -1.90920429       0.08599491      -3.18395104       0.00000000
Si      -0.29497932      -3.12870627      -2.05341521       0.00000000
Si      -0.94529241       0.34831278       3.71291262       0.00000000
Si       3.21331653      -1.71361026      -1.41355676       0.00000000
