10
Lattice="16.28999089631971 0.0 0.0 0.0 16.28999089631971 0.0 0.0 0.0 34.397273925272025" Properties=species:S:1:pos:R:3:initial_magmoms:R:1 pbc="T T T"
Si      -1.54956996      -0.39051691       1.73812962       0.00000000
Si       0.15824106      -1.37131501      -1.94795311       0.00000000
Si       1.96276581       0.58520196       1.22732982       0.00000000
Si      -0.13683600       2.14448076      -1.04578090       0.00000000
Si      -0.93432924       1.76119335       2.71666382       0.00000000
Si       1.26594477       2.69821044       2.15729503       0.00000000
Si       2.52011187      -1.61805133       2.25539611       0.00000000
Si      -3.68423504      -0.27808496       0.67226070       0.00000000
Si       2.37721599      -2.18568536      -1.93780591       0.00000000
Si      -0.60997905       0.03139083      -3.72405734       0.00000000
