10
Lattice="16.28999089631971 0.0 0.0 0.0 16.28999089631971 0.0 0.0 0.0 34.397273925272025" Properties=species:S:1:pos:R:3:initial_magmoms:R:1 pbc="T T T"
Si      -1.30277646       1.33071381       1.44867296       0.00000000
Si       1.22054454       1.59889608      -1.25794630       0.00000000
Si      -1.56801024      -1.18597716      -1.40124051       0.00000000
Si       1.42025994      -1.38508983       1.43420890       0.00000000
Si      -2.58113421       2.70210375      -0.03147352       0.00000000
Si      -2.64583809      -0.02858895       2.81547004       0.00000000
Si      -2.68007967      -2.81082321      -0.03543609       0.00000000
Si       2.77798257       2.71867068       0.06036037       0.00000000
Si       0.06476904       2.68996770       2.81553883       0.00000000
Si      -0.79177545       3.55315851      -1.44898395       0.00000000
