10
Lattice="16.28999089631971 0.0 0.0 0.0 16.28999089631971 0.0 0.0 0.0 34.397273925272025" Properties=species:S:1:pos:R:3:initial_magmoms:R:1 pbc="T T T"
Si      -1.25416710       1.42545645       1.35236398       0.00000000
Si       1.34223084       1.35252612      -1.36041294       0.00000000
Si      -1.38144087      -1.35379674      -1.36216721       0.00000000
Si       1.27304721      -1.35583299       1.48358965       0.00000000
Si      -2.35571319      -0.13690116       2.69918999       0.00000000
Si      -0.53090739      -1.80398718       3.06920167       0.00000000
Si       2.68133400      -2.71811682       0.02105114       0.00000000
Si       2.69834076       0.00180819      -2.72178901       0.00000000
Si       2.70591561       2.72407896       0.02225505       0.00000000
Si      -0.01547550      -2.71454442      -2.71951879       0.00000000
