10
Lattice="16.28999089631971 0.0 0.0 0.0 16.28999089631971 0.0 0.0 0.0 34.397273925272025" Properties=species:S:1:pos:R:3:initial_magmoms:R:1 pbc="T T T"
Si      -0.86081247       1.71080838       1.43663735       0.00000000
Si       1.78743654      -0.85998168       1.37097291       0.00000000
Si      -1.68995718      -1.71331704       0.24239772       0.00000000
Si       0.12180033       0.33397758      -2.47213346       0.00000000
Si      -0.82381788      -1.69158618      -3.21373910       0.00000000
Si      -2.11025547       0.48783663       3.08716535       0.00000000
Si       0.61170579      -2.25048631       3.01864595       0.00000000
Si      -2.22379677       3.10482513       0.14546615       0.00000000
Si      -2.73222396      -1.89851805      -1.89226389       0.00000000
Si      -0.92295882       2.40213969      -2.84826786       0.00000000
