10
Lattice="16.28999089631971 0.0 0.0 0.0 16.28999089631971 0.0 0.0 0.0 34.397273925272025" Properties=species:S:1:pos:R:3:initial_magmoms:R:1 pbc="T T T"
Si      -1.04226678      -0.18520101      -2.13466162       0.00000000
Si      -1.78733880       0.79667874       1.41004824       0.00000000
Si       1.68995718       1.71331704      -0.24239772       0.00000000
Si       0.81272439      -1.79039415       1.45768849       0.00000000
Si       0.86613930       0.02173086      -3.45613682       0.00000000
Si      -1.51413921      -2.49864884      -2.05675175       0.00000000
Si      -0.42029829       2.20115367       2.84476763       0.00000000
Si       2.30166297      -0.53716927       2.77624822       0.00000000
Si       0.82914471       3.42412542       1.19423962       0.00000000
Si       3.47739372       0.85333536       1.12857519       0.00000000
