10
Lattice="16.28999089631971 0.0 0.0 0.0 16.28999089631971 0.0 0.0 0.0 34.397273925272025" Properties=species:S:1:pos:R:3:initial_magmoms:R:1 pbc="T T T"
Si       2.12551920      -0.72342261      -0.84840924       0.00000000
Si      -0.33098022       2.25437310       0.87857566       0.00000000
Si      -0.78907131       0.82564236      -2.21852222       0.00000000
Si      -0.12658959      -0.85556709       2.42067511       0.00000000
Si       2.32231869       2.08575531       1.99500861       0.00000000
Si      -2.40624477      -0.50448501       2.89350030       0.00000000
Si       1.37642355       0.63402309       3.67951285       0.00000000
Si      -2.83082733       2.79818217       0.83667976       0.00000000
Si       0.88640406       1.87111827      -3.50897107       0.00000000
Si      -1.76990850      -0.84911625      -3.58278766       0.00000000
