10
Lattice="16.28999089631971 0.0 0.0 0.0 16.28999089631971 0.0 0.0 0.0 34.397273925272025" Properties=species:S:1:pos:R:3:initial_magmoms:R:1 pbc="T T T"
Si       2.26110087       0.28329939      -0.42559771       0.00000000
Si      -0.41142024      -0.05437602       2.30107572       0.00000000
Si      -0.51212502      -2.19538701      -0.72684920       0.00000000
Si      -1.26499995       1.84029759      -0.82704852       0.00000000
Si       2.55383217       1.53630990       1.55052678       0.00000000
Si      -2.69373069       0.39688956       2.20108279       0.00000000
Si      -2.66356161       0.55079748      -2.21938215       0.00000000
Si       0.29766717      -2.28657843       2.64780043       0.00000000
Si      -1.73947878      -1.61432271      -2.64356957       0.00000000
Si       3.05603658      -1.95580998      -0.18237445       0.00000000
