10
Lattice="16.28999089631971 0.0 0.0 0.0 16.28999089631971 0.0 0.0 0.0 34.397273925272025" Properties=species:S:1:pos:R:3:initial_magmoms:R:1 pbc="T T T"
Si       1.37181348       1.21761234       1.39010985       0.00000000
Si      -1.30236921       1.43615898      -1.39736909       0.00000000
Si       1.67534505      -0.87311142      -1.48508219       0.00000000
Si      -1.31219208      -1.54393362       1.34098019       0.00000000
Si      -1.78202826      -0.28786059      -2.90376415       0.00000000
Si       0.23053608      -1.49185449      -3.32495900       0.00000000
Si      -0.09356976       2.48591916       2.69973863       0.00000000
Si       0.38374353       2.30627304      -2.90342017       0.00000000
Si       2.62770732      -0.25070310       2.70109044       0.00000000
Si       2.61811251      -2.80968291      -0.17767547       0.00000000
