10
Lattice="16.28999089631971 0.0 0.0 0.0 16.28999089631971 0.0 0.0 0.0 34.397273925272025" Properties=species:S:1:pos:R:3:initial_magmoms:R:1 pbc="T T T"
Si      -1.67547537      -1.04547591       1.29044885       0.00000000
Si      -1.39548285       1.28541132      -1.43175293       0.00000000
Si       1.30377015      -1.42161201      -1.40392552       0.00000000
Si       1.62098532       1.51956378       1.77056627       0.00000000
Si      -0.49252815       2.28490056       2.62465106       0.00000000
Si      -2.82779739       2.50932789      -0.07158077       0.00000000
Si      -3.59815149       0.51166890       1.05307313       0.00000000
Si      -2.65631256      -2.72023452      -0.07381659       0.00000000
Si       2.86277202      -2.53210131       0.06545805       0.00000000
Si      -0.06302601       2.64090222      -2.79020523       0.00000000
