10
Lattice="16.28999089631971 0.0 0.0 0.0 16.28999089631971 0.0 0.0 0.0 34.397273925272025" Properties=species:S:1:pos:R:3:initial_magmoms:R:1 pbc="T T T"
Si      -1.24593413       1.29134088      -1.47316727       0.00000000
Si       1.33509582       1.37130849       1.34486193       0.00000000
Si      -1.37517737      -1.34705268       1.34211014       0.00000000
Si       1.47316986      -1.23531957      -1.39606574       0.00000000
Si      -0.41388003      -2.15186013      -2.40662725       0.00000000
Si       0.61577829       2.11844934      -2.71826257       0.00000000
Si      -2.22672083      -0.58790610      -2.72741439       0.00000000
Si       2.69387730       0.01234782       2.70142237       0.00000000
Si       2.31567237       0.36900108      -3.01359986       0.00000000
Si      -0.02063943      -2.70283680       2.70293586       0.00000000
