10
Lattice="16.28999089631971 0.0 0.0 0.0 16.28999089631971 0.0 0.0 0.0 34.397273925272025" Properties=species:S:1:pos:R:3:initial_magmoms:R:1 pbc="T T T"
Si      -0.63081396       0.82893294      -2.07192095       0.00000000
Si       0.47965905       1.72401957       1.50639506       0.00000000
Si       2.01256434      -1.20399390      -0.42119485       0.00000000
Si      -1.90210185      -1.36228383       1.07126930       0.00000000
Si      -1.25651286      -2.47715514      -0.83238010       0.00000000
Si      -1.08149310      -1.39377240      -2.86250834       0.00000000
Si       2.16577179       2.59413363       0.00034397       0.00000000
Si       1.78202826       0.28786059       2.90376415       0.00000000
Si      -2.67660990       1.71699858      -1.35473739       0.00000000
Si      -3.59220564       0.31341960       0.38858622       0.00000000
