10
Lattice="16.28999089631971 0.0 0.0 0.0 16.28999089631971 0.0 0.0 0.0 34.397273925272025" Properties=species:S:1:pos:R:3:initial_magmoms:R:1 pbc="T T T"
Si      -0.56011536      -2.23282143      -0.66569081       0.00000000
Si       1.46710998       0.10985976       1.94437579       0.00000000
Si       2.28374397       0.71074899      -0.63339176       0.00000000
Si      -0.56158146       1.47693285       2.24456097       0.00000000
Si      -1.87825329      -0.74841147      -2.00326396       0.00000000
Si       0.84543471       1.99594854      -2.00584375       0.00000000
Si      -1.86241941       2.41945596       0.44369068       0.00000000
Si      -3.16456056       0.61955757      -0.46340033       0.00000000
Si      -0.51134310       0.61517556      -3.38393691       0.00000000
Si       1.77515388      -2.45724876       2.03054101       0.00000000
