10
Lattice="16.28999089631971 0.0 0.0 0.0 16.28999089631971 0.0 0.0 0.0 34.397273925272025" Properties=species:S:1:pos:R:3:initial_magmoms:R:1 pbc="T T T"
Si       0.91963566      -1.29945330       1.80864407       0.00000000
Si      -0.95330709      -1.45885095      -1.68773759       0.00000000
Si       1.83549204       1.63650124      -0.08227833       0.00000000
Si      -1.98703791       0.96053985       1.12245247       0.00000000
Si       0.39324060       3.48091955      -0.27693261       0.00000000
Si      -1.87695009      -3.06465399      -0.26362085       0.00000000
Si      -1.51516548       3.27398768       1.04454260       0.00000000
Si       1.74200373       0.17348850       3.42820622       0.00000000
Si       3.13510824       1.23528699       1.87272623       0.00000000
Si       0.58430601      -3.07144692      -2.42824251       0.00000000
