10
Lattice="16.28999089631971 0.0 0.0 0.0 16.28999089631971 0.0 0.0 0.0 34.397273925272025" Properties=species:S:1:pos:R:3:initial_magmoms:R:1 pbc="T T T"
Si      -0.47965905      -1.72401957      -1.50639506       0.00000000
Si       1.30236921      -1.43615898       1.39736909       0.00000000
Si       1.68611274       0.87011406      -1.50605108       0.00000000
Si      -1.70924454       1.30328145       1.38802905       0.00000000
Si       2.50848081       2.34305586       0.11351107       0.00000000
Si      -0.15180651       2.42305605       2.70633572       0.00000000
Si       2.97771426      -2.30927040      -0.08771310       0.00000000
Si       1.53290529      -2.92801347      -1.92758991       0.00000000
Si      -1.11047301      -0.89508663      -3.57831601       0.00000000
Si       2.67418269      -0.21854664       2.78747894       0.00000000
