10
Lattice="16.28999089631971 0.0 0.0 0.0 16.28999089631971 0.0 0.0 0.0 34.397273925272025" Properties=species:S:1:pos:R:3:initial_magmoms:R:1 pbc="T T T"
Si      -1.48893858      -1.25322489      -1.31855973       0.00000000
Si       1.32618519      -1.33675398       1.45092598       0.00000000
Si      -1.37305152       1.36549948       1.44957073       0.00000000
Si       1.17573075       1.39050463      -1.64767303       0.00000000
Si      -2.30166297       0.53716927      -2.77624822       0.00000000
Si      -0.08676054      -2.74853092      -2.52724622       0.00000000
Si       2.77200414      -2.60029192       0.05210502       0.00000000
Si      -0.61170579       2.25048631      -3.01864595       0.00000000
Si       2.67898824       2.71939396      -0.02413314       0.00000000
Si      -2.74704786      -2.66853073       0.06557844       0.00000000
