10
Lattice="16.28999089631971 0.0 0.0 0.0 16.28999089631971 0.0 0.0 0.0 34.397273925272025" Properties=species:S:1:pos:R:3:initial_magmoms:R:1 pbc="T T T"
Si       1.33351457       1.35549253      -1.36422072       0.00000000
Si      -1.35759231       1.35374950       1.35484058       0.00000000
Si       1.35876519      -1.35978073       1.35473739       0.00000000
Si      -1.35845568      -1.35555753      -1.37333945       0.00000000
Si       0.08736327      -2.61909547      -2.77216041       0.00000000
Si       2.62616859       0.01671517      -2.78337049       0.00000000
Si      -2.71347417       2.71018522      -0.00598513       0.00000000
Si       0.00004887       2.71199341       2.71202018       0.00000000
Si       2.71435776      -0.00225291       2.71226096       0.00000000
Si      -2.71508688      -0.00213236       2.71198578       0.00000000
