10
Lattice="16.28999089631971 0.0 0.0 0.0 16.28999089631971 0.0 0.0 0.0 34.397273925272025" Properties=species:S:1:pos:R:3:initial_magmoms:R:1 pbc="T T T"
Si      -1.35839052      -1.35632323       1.35656045       0.00000000
Si       1.35798327      -1.35673048      -1.35711080       0.00000000
Si      -1.35739683       1.35844503      -1.35735158       0.00000000
Si       1.35883035       1.35827399       1.35786754       0.00000000
Si      -2.71207323       0.00137966       2.71081628       0.00000000
Si      -2.71389771       0.00218850      -2.71418721       0.00000000
Si      -2.71441899      -2.71402957       0.00030958       0.00000000
Si       0.00009774       2.71432689      -2.71449679       0.00000000
Si       0.00127062      -2.71339426      -2.71566629       0.00000000
Si       2.71466677      -2.71525132      -0.00034397       0.00000000
