10
Lattice="16.28999089631971 0.0 0.0 0.0 16.28999089631971 0.0 0.0 0.0 34.397273925272025" Properties=species:S:1:pos:R:3:initial_magmoms:R:1 pbc="T T T"
Si      -1.27351962      -1.63186934      -1.04481778       0.00000000
Si       1.45148891      -1.21817044       1.50254256       0.00000000
Si      -1.40413284       1.44536772       1.39023540       0.00000000
Si       1.16712963       0.20066674      -2.26767595       0.00000000
Si       3.30179471       0.08823478      -1.20180703       0.00000000
Si       1.10574891       2.51053824      -2.47388772       0.00000000
Si       2.97926900      -2.25520619       0.00467803       0.00000000
Si      -0.06328665      -3.71088059      -0.80950590       0.00000000
Si      -2.66662413      -2.69366783       0.51066221       0.00000000
Si      -3.19156938       2.30534940       0.01926248       0.00000000
