10
Lattice="16.28999089631971 0.0 0.0 0.0 16.28999089631971 0.0 0.0 0.0 34.397273925272025" Properties=species:S:1:pos:R:3:initial_magmoms:R:1 pbc="T T T"
Si       1.35180042      -1.35635427       1.35521895       0.00000000
Si       1.35545344       1.35780408      -1.35790194       0.00000000
Si      -1.35907470      -1.35687555      -1.35793634       0.00000000
Si      -1.36057338       1.35575154       1.35889946       0.00000000
Si      -0.00096111      -2.69197137       2.72079149       0.00000000
Si       2.71493768      -2.71272483      -0.00013759       0.00000000
Si       2.71360027       0.00058644      -2.71559750       0.00000000
Si      -2.71603170      -2.71345788      -0.00134149       0.00000000
Si       2.71422418       2.71542897       0.00165107       0.00000000
Si      -0.00177561      -2.71485882      -2.71521913       0.00000000
