10
Lattice="16.28999089631971 0.0 0.0 0.0 16.28999089631971 0.0 0.0 0.0 34.397273925272025" Properties=species:S:1:pos:R:3:initial_magmoms:R:1 pbc="T T T"
Si      -1.71711261       0.54187056      -1.56435450       0.00000000
Si       1.40830308      -1.72071270      -1.07546577       0.00000000
Si       1.42544016       2.01259692      -0.38889580       0.00000000
Si      -0.41787108      -0.93568131       2.27909585       0.00000000
Si      -1.26952857      -1.19490408      -3.11722029       0.00000000
Si       1.76124222      -1.64903670       2.66764767       0.00000000
Si       1.88426430       1.63970253      -2.72718939       0.00000000
Si       2.29306185      -2.91892365       0.75147766       0.00000000
Si      -1.52031312       3.35104848       1.27906335       0.00000000
Si       3.18646476       1.93337865       1.25164870       0.00000000
