10
Lattice="16.28999089631971 0.0 0.0 0.0 16.28999089631971 0.0 0.0 0.0 34.397273925272025" Properties=species:S:1:pos:R:3:initial_magmoms:R:1 pbc="T T T"
Si      -1.25589384       1.46831544      -1.31098059       0.00000000
Si       1.35058761       1.36098063       1.36119720       0.00000000
Si      -1.36231641      -1.35174420       1.36360501       0.00000000
Si       1.41102351      -1.30329774      -1.44324507       0.00000000
Si       2.54330883       0.55796508      -2.59045017       0.00000000
Si      -2.62770732       0.25070310      -2.70109044       0.00000000
Si      -0.00764001      -2.70637173       2.72133497       0.00000000
Si       2.70824189       0.00834048       2.72185093       0.00000000
Si      -2.70713736      -2.72536587       0.00278618       0.00000000
Si       2.72286397      -2.71296918      -0.02342800       0.00000000
