10
Lattice="16.28999089631971 0.0 0.0 0.0 16.28999089631971 0.0 0.0 0.0 34.397273925272025" Properties=species:S:1:pos:R:3:initial_magmoms:R:1 pbc="T T T"
Si      -1.35467640       1.35462753      -1.35772996       0.00000000
Si       1.35725022       1.35645201       1.35714520       0.00000000
Si      -1.35762489      -1.35881406       1.35697321       0.00000000
Si       1.35852084      -1.35990549      -1.36110089       0.00000000
Si      -2.69949735      -0.01899414      -2.71854879       0.00000000
Si      -2.71459818       2.71303434      -0.00044716       0.00000000
Si       0.00764001       2.70637173      -2.72133497       0.00000000
Si       0.00003258       2.71482624       2.71425601       0.00000000
Si       2.71472362      -0.00171045       2.71456558       0.00000000
Si      -2.71467963      -0.00175932       2.71490955       0.00000000
