10
Lattice="16.28999089631971 0.0 0.0 0.0 16.28999089631971 0.0 0.0 0.0 34.397273925272025" Properties=species:S:1:pos:R:3:initial_magmoms:R:1 pbc="T T T"
Si       0.88991115       1.72424763      -1.42659334       0.00000000
Si       2.05723056      -1.24025544       0.45576413       0.00000000
Si      -1.75648554      -0.89428842      -1.45837643       0.00000000
Si      -2.53436562      -0.43350948       2.16723585       0.00000000
Si       0.13167207       2.69312796       2.37399798       0.00000000
Si      -2.92938183      -2.07229977       0.23379840       0.00000000
Si       2.17197732       0.39671037      -2.95073740       0.00000000
Si       2.95260227      -1.48864536      -1.67456342       0.00000000
Si      -0.53774919      -2.31019893      -2.95111577       0.00000000
Si      -1.31771439      -2.59007742       2.52796027       0.00000000
