10
Lattice="16.28999089631971 0.0 0.0 0.0 16.28999089631971 0.0 0.0 0.0 34.397273925272025" Properties=species:S:1:pos:R:3:initial_magmoms:R:1 pbc="T T T"
Si       1.90105929      -1.38929265       0.11574689       0.00000000
Si      -2.08862235      -1.08955665      -0.11894584       0.00000000
Si       0.94889250       1.69225407      -1.43715331       0.00000000
Si      -0.81570546       0.61486605       2.19220829       0.00000000
Si       3.01647699       0.14371038       1.49972198       0.00000000
Si       1.75892904       0.28916379      -3.10844898       0.00000000
Si       0.56185839       2.41272819       2.68467433       0.00000000
Si      -3.19917681       0.18500553      -1.85160629       0.00000000
Si      -1.58954562      -3.21820353      -0.96553202       0.00000000
Si       2.73064450      -1.59557292      -2.14601272       0.00000000
