10
Lattice="16.28999089631971 0.0 0.0 0.0 16.28999089631971 0.0 0.0 0.0 34.397273925272025" Properties=species:S:1:pos:R:3:initial_magmoms:R:1 pbc="T T T"
Si       1.35024552      -1.34861652       1.35924344       0.00000000
Si       1.35585271       1.35718506      -1.35659484       0.00000000
Si      -1.35853713      -1.35578412      -1.35656045       0.00000000
Si      -1.35889551       1.35988920       1.36147926       0.00000000
Si       2.71399775       0.00021177      -2.71374005       0.00000000
Si      -0.00131949      -2.71415835      -2.71367125       0.00000000
Si      -2.71518462      -2.71322982       0.00171986       0.00000000
Si       2.71280695       2.71562445       0.00137589       0.00000000
Si      -0.00083079       2.71570590      -2.71336168       0.00000000
Si      -2.71567332      -0.00011403      -2.71377444       0.00000000
