10
Lattice="16.28999089631971 0.0 0.0 0.0 16.28999089631971 0.0 0.0 0.0 34.397273925272025" Properties=species:S:1:pos:R:3:initial_magmoms:R:1 pbc="T T T"
Si      -0.44228979      -0.82587042       2.12492718       0.00000000
Si       2.25806508      -0.61628328      -0.16503821       0.00000000
Si       0.17417268       2.34913203      -0.03814660       0.00000000
Si      -1.72929753      -0.94700286      -1.32752913       0.00000000
Si      -1.22057712       0.56211903      -3.00546349       0.00000000
Si      -0.57029661      -2.87735157      -2.01602535       0.00000000
Si       2.93809113       0.56573541      -2.01812359       0.00000000
Si      -0.96236433      -3.05388630       1.69441066       0.00000000
Si      -2.12682240       2.93459463       0.00082554       0.00000000
Si       3.12620154       0.20919618       1.82986720       0.00000000
