10
Lattice="16.28999089631971 0.0 0.0 0.0 16.28999089631971 0.0 0.0 0.0 34.397273925272025" Properties=species:S:1:pos:R:3:initial_magmoms:R:1 pbc="T T T"
Si       1.65353274      -1.39085649      -0.93760142       0.00000000
Si       1.56269970       1.64831994       0.64622195       0.00000000
Si      -1.32133077       0.80065350      -1.80007915       0.00000000
Si      -1.30093569      -1.32985044       1.51048833       0.00000000
Si       2.84713362       0.17739810       1.92494132       0.00000000
Si      -2.83854879       0.28274553       2.25099326       0.00000000
Si      -1.59881463      -1.26750861      -3.02266214       0.00000000
Si       2.09582253      -0.56498607      -3.06252860       0.00000000
Si      -2.48865588      -2.88521964       0.09607164       0.00000000
Si       3.65717016      -1.22569218       0.25364564       0.00000000
