10
Lattice="16.28999089631971 0.0 0.0 0.0 16.28999089631971 0.0 0.0 0.0 34.397273925272025" Properties=species:S:1:pos:R:3:initial_magmoms:R:1 pbc="T T T"
Si      -1.35453793       1.35578412      -1.36082571       0.00000000
Si       1.35751086       1.35728280       1.35656045       0.00000000
Si      -1.35792137      -1.35768028       1.35676683       0.00000000
Si       1.35466011      -1.35593725      -1.36216721       0.00000000
Si       0.02063943       2.70283680      -2.70293586       0.00000000
Si       0.00128691       2.71443528       2.71315529       0.00000000
Si      -2.71399867       2.71419093      -0.00041277       0.00000000
Si      -2.71351394      -2.71520810      -0.00075674       0.00000000
Si      -2.71496132      -0.00006516       2.71432480       0.00000000
Si       2.71580364      -0.00065160       2.71380884       0.00000000
