10
Lattice="16.28999089631971 0.0 0.0 0.0 16.28999089631971 0.0 0.0 0.0 34.397273925272025" Properties=species:S:1:pos:R:3:initial_magmoms:R:1 pbc="T T T"
Si      -0.06199974      -1.23996222      -1.93980095       0.00000000
Si      -2.16381552      -0.32524614       0.79168810       0.00000000
Si       1.99288602      -0.88070256       0.83379039       0.00000000
Si       0.37866105       2.33399862      -0.29674545       0.00000000
Si       2.02017177      -0.66976335      -2.72313051       0.00000000
Si       3.25668051       1.05982740       1.13648657       0.00000000
Si      -3.38153426       0.03086955      -1.35986259       0.00000000
Si      -2.35679552       1.35822762       2.46821217       0.00000000
Si      -1.98666487      -0.73415772      -3.12437493       0.00000000
Si       3.16899144      -1.80107127      -1.02823828       0.00000000
