10
Lattice="16.28999089631971 0.0 0.0 0.0 16.28999089631971 0.0 0.0 0.0 34.397273925272025" Properties=species:S:1:pos:R:3:initial_magmoms:R:1 pbc="T T T"
Si      -0.69154308      -1.89644922      -1.21122084       0.00000000
Si       1.11206943       1.62484605      -1.36580442       0.00000000
Si       1.40014179      -1.28961414       1.46978946       0.00000000
Si      -1.32128190       1.42004817       1.46863715       0.00000000
Si      -1.81754046      -1.04997195      -3.07397399       0.00000000
Si      -2.55325550      -2.72355768       0.03387445       0.00000000
Si      -0.58352409       2.56629402      -2.76309126       0.00000000
Si       2.80437237      -2.66027103       0.01160221       0.00000000
Si       2.68007967       2.81082321       0.03543609       0.00000000
Si       0.02777445      -2.64359007       2.85190365       0.00000000
