10
Lattice="16.28999089631971 0.0 0.0 0.0 16.28999089631971 0.0 0.0 0.0 34.397273925272025" Properties=species:S:1:pos:R:3:initial_magmoms:R:1 pbc="T T T"
Si      -0.89537170       0.24838992       2.13032756       0.00000000
Si      -0.78062494       1.88535573      -1.27617397       0.00000000
Si       1.92099825      -0.81779058      -1.27173672       0.00000000
Si      -1.78942881      -1.91581803       0.05193991       0.00000000
Si      -2.14119737       0.54786528      -2.65124016       0.00000000
Si       0.58844367      -2.18466819      -2.65464550       0.00000000
Si      -2.95260227       1.48864536       1.67456342       0.00000000
Si      -3.49035146      -0.82155357      -1.27655234       0.00000000
Si      -2.06269111       3.21289299       0.24797009       0.00000000
Si      -0.76656016      -3.54087585      -1.29787867       0.00000000
