10
Lattice="16.28999089631971 0.0 0.0 0.0 16.28999089631971 0.0 0.0 0.0 34.397273925272025" Properties=species:S:1:pos:R:3:initial_magmoms:R:1 pbc="T T T"
Si      -0.39691562       0.21473478       2.36044545       0.00000000
Si      -2.00162953       1.19886255      -0.80895554       0.00000000
Si       2.46965685       0.05620050      -0.27507515       0.00000000
Si      -0.46957717      -2.26690011      -0.92735102       0.00000000
Si       1.26745485       2.36302740      -0.63342615       0.00000000
Si      -0.87614299       2.50515765       2.47347495       0.00000000
Si      -2.62771939      -0.61512669       2.56046571       0.00000000
Si      -0.19611694       3.68717634       0.62038958       0.00000000
Si      -3.70450468       0.24408936       0.62248781       0.00000000
Si      -0.98063194      -3.69225882       0.90574952       0.00000000
