10
Lattice="16.28999089631971 0.0 0.0 0.0 16.28999089631971 0.0 0.0 0.0 34.397273925272025" Properties=species:S:1:pos:R:3:initial_magmoms:R:1 pbc="T T T"
Si       0.57440169       2.06575119      -0.90705662       0.00000000
Si       1.78176762      -1.09468800       1.06225721       0.00000000
Si      -0.12743667      -1.00869309      -2.12169384       0.00000000
Si      -2.11327564       0.19140750       1.06205082       0.00000000
Si       2.29285008      -0.84274686      -2.51619639       0.00000000
Si      -2.86289324      -1.98446409       0.64326378       0.00000000
Si      -1.52013719       2.94604650      -1.38669248       0.00000000
Si       2.75058279      -2.28286431      -0.68846182       0.00000000
Si       0.70955982      -2.16630936       2.89418825       0.00000000
Si       1.22864067       3.36600270       0.95187629       0.00000000
