10
Lattice="16.28999089631971 0.0 0.0 0.0 16.28999089631971 0.0 0.0 0.0 34.397273925272025" Properties=species:S:1:pos:R:3:initial_magmoms:R:1 pbc="T T T"
Si      -1.35585271      -1.35718506       1.35659484       0.00000000
Si      -1.35668350       1.35852084      -1.35676683       0.00000000
Si       1.35814504      -1.35697329      -1.35714520       0.00000000
Si       1.35695424       1.35843939       1.35797074       0.00000000
Si      -0.00560719      -2.70580158       2.71583828       0.00000000
Si       0.00145949      -2.71308321      -2.71370565       0.00000000
Si      -2.71438984      -2.71296918       0.00003440       0.00000000
Si       2.71422727       0.00060273      -2.71439359       0.00000000
Si      -2.71339615       0.00185706      -2.71532232       0.00000000
Si       2.71549789      -2.71417464       0.00006879       0.00000000
