10
Lattice="16.28999089631971 0.0 0.0 0.0 16.28999089631971 0.0 0.0 0.0 34.397273925272025" Properties=species:S:1:pos:R:3:initial_magmoms:R:1 pbc="T T T"
Si      -0.55627744       0.89448390      -2.08698697       0.00000000
Si       0.92861145      -2.19375801      -0.15499420       0.00000000
Si       0.99518868       1.23878934       1.79890964       0.00000000
Si      -2.41879526       0.26349075       0.38418337       0.00000000
Si       0.77889006      -2.59460604       2.24390742       0.00000000
Si      -2.55167279      -1.36342413       2.06201453       0.00000000
Si       0.39780180       3.50732238       1.33908662       0.00000000
Si       3.19621203      -1.69358985      -1.10951909       0.00000000
Si      -0.68468173      -1.27045710       3.49772315       0.00000000
Si      -1.66055617      -0.70538958      -3.41640795       0.00000000
