10
Lattice="10.86 0.0 0.0 0.0 10.86 0.0 0.0 0.0 10.86" Properties=species:S:1:pos:R:3:initial_magmoms:R:1 pbc="T T T"
Si       1.16825364      -1.32153168      -1.30801098       0.00000000
Si      -1.54674636       1.39346832      -1.30801098       0.00000000
Si      -1.54674636      -1.32153168       1.40698902       0.00000000
Si       1.42562478       1.53663570       1.49305452       0.00000000
Si       2.52575364      -2.67903168       0.04948902       0.00000000
Si       2.51369904      -0.07447788       2.81504232       0.00000000
Si      -0.18924636      -2.67903168      -2.66551098       0.00000000
Si       2.82425160       0.03766248      -2.61575046       0.00000000
Si      -0.18924636      -2.67903168       2.76448902       0.00000000
Si       0.04807722       2.74935018       2.74983888       0.00000000
