10
Lattice="10.86 0.0 0.0 0.0 10.86 0.0 0.0 0.0 10.86" Properties=species:S:1:pos:R:3:initial_magmoms:R:1 pbc="T T T"
Si       1.25248380       1.20226716      -1.17288000       0.00000000
Si      -1.52420100       1.13162286       1.37276916       0.00000000
Si      -1.48307418      -1.33911402      -1.26428862       0.00000000
Si       2.64993774      -0.03478458      -2.49014370       0.00000000
Si      -0.06506226       2.68021542      -2.49014370       0.00000000
Si      -0.06506226      -2.74978458      -2.49014370       0.00000000
Si      -2.78006226      -0.03478458      -2.49014370       0.00000000
Si       2.64993774       2.68021542       0.22485630       0.00000000
Si      -2.78006226       2.68021542       0.22485630       0.00000000
Si      -2.78006226      -2.74978458       0.22485630       0.00000000
