10
Lattice="16.28999089631971 0.0 0.0 0.0 16.28999089631971 0.0 0.0 0.0 34.56409401068381" Properties=species:S:1:pos:R:3:initial_magmoms:R:1 pbc="T T T"
Si      -1.35029439      -1.34161428       1.36956151       0.00000000
Si      -1.48898745       1.24165459      -1.32949479       0.00000000
Si       1.35718506       1.38217376       1.36555208       0.00000000
Si       1.37984445      -1.40498238      -1.42654737       0.00000000
Si       0.50275827       1.82132446      -2.62330629       0.00000000
Si       2.47469535       0.25232705      -2.90040060       0.00000000
Si      -2.70982521      -2.70060753      -0.01196955       0.00000000
Si      -0.00066789      -2.69370057       2.72734358       0.00000000
Si       2.72894967      -2.70660225      -0.00796703       0.00000000
Si      -2.71415835       0.02010647       2.72516604       0.00000000
