10
Lattice="16.28999089631971 0.0 0.0 0.0 16.28999089631971 0.0 0.0 0.0 34.56409401068381" Properties=species:S:1:pos:R:3:initial_magmoms:R:1 pbc="T T T"
Si      -1.74332322      -0.93773385      -1.30355097       0.00000000
Si       1.03741236       1.73866428      -1.33797683       0.00000000
Si      -1.15647597       0.53406765       2.06669203       0.00000000
Si       1.82332341      -1.72439424       0.10638834       0.00000000
Si      -1.24058124       2.72570796       1.35944114       0.00000000
Si       1.20827817      -2.05458765       2.63157333       0.00000000
Si      -0.36895221      -2.29469248      -2.69430720       0.00000000
Si       2.36322288       0.45076059      -2.73844557       0.00000000
Si       0.40715226      -0.08886195       3.66697591       0.00000000
Si      -3.14618544      -2.37930600       0.15242774       0.00000000
