10
Lattice="16.28999089631971 0.0 0.0 0.0 16.28999089631971 0.0 0.0 0.0 34.56409401068381" Properties=species:S:1:pos:R:3:initial_magmoms:R:1 pbc="T T T"
Si       1.74332322       0.93773385       1.30355097       0.00000000
Si       1.37437101      -1.35695863      -1.39075623       0.00000000
Si      -1.33288038       1.37826432      -1.41211685       0.00000000
Si      -1.40286222      -1.44157215       1.45597871       0.00000000
Si       0.58684725       1.47180150       3.37024300       0.00000000
Si      -2.68856676       2.72631069      -0.06345971       0.00000000
Si       2.78073558       2.67639813      -0.03442586       0.00000000
Si       0.01889640      -2.68931149      -2.77501440       0.00000000
Si      -2.69369811       0.02091636      -2.77318250       0.00000000
Si       2.68253946      -2.79413315       0.14855656       0.00000000
