10
Lattice="16.28999089631971 0.0 0.0 0.0 16.28999089631971 0.0 0.0 0.0 34.56409401068381" Properties=species:S:1:pos:R:3:initial_magmoms:R:1 pbc="T T T"
Si      -1.11063591      -1.41105234       1.45151994       0.00000000
Si       0.68053104      -1.25957701      -1.81178169       0.00000000
Si       2.02518909       0.46622469       1.11904773       0.00000000
Si      -1.75342302       1.17708771      -1.10860937       0.00000000
Si      -2.04758784       0.33510648       2.84842858       0.00000000
Si      -0.41873445       2.04658275      -2.85751894       0.00000000
Si      -1.22126130      -2.59589525      -2.13426487       0.00000000
Si      -2.27820537      -2.86266029      -0.01987437       0.00000000
Si       3.66538032      -0.56833367      -0.33755313       0.00000000
Si       2.61148248      -2.46507026      -1.23587444       0.00000000
