10
Lattice="16.28999089631971 0.0 0.0 0.0 16.28999089631971 0.0 0.0 0.0 34.56409401068381" Properties=species:S:1:pos:R:3:initial_magmoms:R:1 pbc="T T T"
Si       1.11063591       1.41105234      -1.45151994       0.00000000
Si       0.59777784      -1.74512117       1.40686310       0.00000000
Si      -1.16756946      -1.45160795      -1.47139430       0.00000000
Si      -0.93695193       1.74615882       1.39690864       0.00000000
Si      -3.24560331      -0.45306353      -0.98839538       0.00000000
Si       1.50236154      -0.42183560       3.04682659       0.00000000
Si      -3.21044949       1.23785706       0.75778362       0.00000000
Si       2.80613169       1.23773163       1.97329979       0.00000000
Si      -0.45924768       0.75836091       3.55567947       0.00000000
Si       3.13582500       1.87727703      -0.33247221       0.00000000
