10
Lattice="16.28999089631971 0.0 0.0 0.0 16.28999089631971 0.0 0.0 0.0 34.56409401068381" Properties=species:S:1:pos:R:3:initial_magmoms:R:1 pbc="T T T"
Si       0.59632803       2.29096044      -0.45966814       0.00000000
Si      -2.27349756      -0.50830176      -0.63912502       0.00000000
Si       0.47770425      -0.98779791       2.15877083       0.00000000
Si       0.93695193      -1.74615882      -1.39690864       0.00000000
Si       2.04758784      -0.33510648      -2.84842858       0.00000000
Si      -3.13676982      -1.06059140       1.46641707       0.00000000
Si      -0.52903404       2.56240071      -2.55093526       0.00000000
Si       2.43931347      -2.16799442       1.64991795       0.00000000
Si      -1.36845774      -2.43357029       2.38316105       0.00000000
Si       3.07421622       1.56346533       1.57847393       0.00000000
