10
Lattice="16.28999089631971 0.0 0.0 0.0 16.28999089631971 0.0 0.0 0.0 34.56409401068381" Properties=species:S:1:pos:R:3:initial_magmoms:R:1 pbc="T T T"
Si       1.35845568       0.96056429       1.76377356       0.00000000
Si       1.98483876       0.54386283      -1.32349446       0.00000000
Si      -1.09696860      -1.52289576       1.63802586       0.00000000
Si      -1.98472473       1.17242062      -1.24475741       0.00000000
Si       3.35020140       1.54023416       0.46996207       0.00000000
Si      -2.73836529      -2.76691419       0.52376768       0.00000000
Si       0.12491172       2.46322556       3.09371769       0.00000000
Si      -2.57170230      -0.25943347       3.07751058       0.00000000
Si       1.87566318       2.52553481      -2.58684737       0.00000000
Si       3.05461935      -1.24132311      -2.45578025       0.00000000
