10
Lattice="16.28999089631971 0.0 0.0 0.0 16.28999089631971 0.0 0.0 0.0 34.56409401068381" Properties=species:S:1:pos:R:3:initial_magmoms:R:1 pbc="T T T"
Si       0.08410527      -2.19164031       0.70725089       0.00000000
Si       1.91917377       1.37494116      -0.11219511       0.00000000
Si      -0.59789187       0.37533789       2.26795886       0.00000000
Si      -1.83415626       0.52346286      -1.42583880       0.00000000
Si       1.24058124      -2.72570796      -1.35944114       0.00000000
Si      -0.38586123       1.94359248      -2.68131109       0.00000000
Si       2.66567931       1.15375554       2.06817829       0.00000000
Si       2.27799360      -0.98704368      -2.69741797       0.00000000
Si       0.23863221       3.52846287       1.12312630       0.00000000
Si      -3.49656705       1.67353686      -0.21004612       0.00000000
