10
Lattice="16.28999089631971 0.0 0.0 0.0 16.28999089631971 0.0 0.0 0.0 34.56409401068381" Properties=species:S:1:pos:R:3:initial_magmoms:R:1 pbc="T T T"
Si       0.99841410       1.04902713       1.83939842       0.00000000
Si      -1.91124054       1.45849257      -0.09947552       0.00000000
Si       1.16372502       1.17573075      -1.78347368       0.00000000
Si      -0.49314717      -2.28084435       0.69736555       0.00000000
Si      -0.94121991      -1.72287927      -2.83709155       0.00000000
Si       1.68122574      -1.64647917      -2.82547801       0.00000000
Si       1.23085611       3.39123591       1.19657504       0.00000000
Si      -2.06619102       2.43942750       2.11791604       0.00000000
Si       2.89202886      -2.39318019      -0.81108148       0.00000000
Si      -0.56391093       1.33110477       3.57624511       0.00000000
