10
Lattice="16.28999089631971 0.0 0.0 0.0 16.28999089631971 0.0 0.0 0.0 34.56409401068381" Properties=species:S:1:pos:R:3:initial_magmoms:R:1 pbc="T T T"
Si       0.53686953      -1.90822689      -1.24133557       0.00000000
Si      -1.73975571       1.27783647      -0.93392234       0.00000000
Si       1.59760917       1.72327023       0.22539258       0.00000000
Si      -0.77519223      -1.01108772       2.03499674       0.00000000
Si       3.07384155       0.54174024       1.56516674       0.00000000
Si       0.25803360       3.32653203       1.30151169       0.00000000
Si      -0.61079355       0.80169606       3.54479177       0.00000000
Si       2.41968402       1.99870155      -1.97889918       0.00000000
Si      -1.38175038      -3.26972880      -1.09035952       0.00000000
Si      -3.30208074       1.55991411       0.80292435       0.00000000
