10
Lattice="16.28999089631971 0.0 0.0 0.0 16.28999089631971 0.0 0.0 0.0 34.56409401068381" Properties=species:S:1:pos:R:3:initial_magmoms:R:1 pbc="T T T"
Si       1.35705474       1.35654975      -1.35639950       0.00000000
Si      -1.35659862       1.35402480       1.36103109       0.00000000
Si      -1.35731538      -1.35866745      -1.35646863       0.00000000
Si       1.35511623      -1.36127385       1.36293212       0.00000000
Si      -0.00050499       2.71393029      -2.71425069       0.00000000
Si       2.71471221      -0.00115659      -2.71366310       0.00000000
Si       2.71441899       2.71419093       0.00089867       0.00000000
Si      -0.00063531      -2.71562445      -2.71400874       0.00000000
Si      -2.71587857      -0.00060273      -2.71435438       0.00000000
Si      -2.71433428       2.71596654       0.00027651       0.00000000
