10
Lattice="16.28999089631971 0.0 0.0 0.0 16.28999089631971 0.0 0.0 0.0 34.56409401068381" Properties=species:S:1:pos:R:3:initial_magmoms:R:1 pbc="T T T"
Si       0.90458370       1.32328557       1.63996349       0.00000000
Si      -0.59777784       1.74512117      -1.40686310       0.00000000
Si       1.33957557      -1.60326180      -1.07611910       0.00000000
Si      -2.02336461      -0.75478086       1.04034525       0.00000000
Si      -1.76534730       0.29351322      -2.87825741       0.00000000
Si      -1.05702552       2.50348208       2.14881636       0.00000000
Si      -0.86882715      -2.52483597       2.24328008       0.00000000
Si      -0.25803360      -3.32653203      -1.30151169       0.00000000
Si      -1.99778931      -2.04869556      -2.23543403       0.00000000
Si       2.20835385       2.98285280       0.56643669       0.00000000
