10
Lattice="16.28999089631971 0.0 0.0 0.0 16.28999089631971 0.0 0.0 0.0 34.56409401068381" Properties=species:S:1:pos:R:3:initial_magmoms:R:1 pbc="T T T"
Si       1.38476403      -1.93387387      -0.29700943       0.00000000
Si      -2.31394563      -0.58490385       0.48521102       0.00000000
Si       1.32250365       2.23065486       0.02125693       0.00000000
Si      -1.69890039      -0.25471044      -2.03997397       0.00000000
Si       1.68476067      -0.01915704       2.08698116       0.00000000
Si       2.18828457       1.40403510      -2.06638095       0.00000000
Si       0.22985190       0.69999759      -3.44618036       0.00000000
Si       3.42088371      -1.18282830       0.88249094       0.00000000
Si      -3.11507154       1.38082185       1.52061360       0.00000000
Si      -2.01580605      -1.92533791       2.56635085       0.00000000
