10
Lattice="16.28999089631971 0.0 0.0 0.0 16.28999089631971 0.0 0.0 0.0 34.56409401068381" Properties=species:S:1:pos:R:3:initial_magmoms:R:1 pbc="T T T"
Si      -0.80112591       1.96572570       1.03540258       0.00000000
Si       2.31394563       0.58490385      -0.48521102       0.00000000
Si       0.29813958      -1.34043405       2.08113983       0.00000000
Si       0.61504524       0.33019341      -2.52518499       0.00000000
Si      -2.51395425      -1.26163281      -0.65917221       0.00000000
Si      -1.20827817       2.05458765      -2.63157333       0.00000000
Si      -2.36475414       2.58865530      -0.56488130       0.00000000
Si      -1.60365276      -2.67675229       1.75865665       0.00000000
Si      -2.13581448       1.09623066       2.78431215       0.00000000
Si      -1.17703395      -2.92396933      -1.99393457       0.00000000
