10
Lattice="16.28999089631971 0.0 0.0 0.0 16.28999089631971 0.0 0.0 0.0 34.56409401068381" Properties=species:S:1:pos:R:3:initial_magmoms:R:1 pbc="T T T"
Si       1.92907809      -1.16356246       0.72021243       0.00000000
Si       0.46027395       0.96648928      -2.11217840       0.00000000
Si      -0.47993598       1.27983558       1.95190461       0.00000000
Si      -1.99115928      -1.31714458      -0.09916444       0.00000000
Si       3.15263628       0.84157593       1.12602968       0.00000000
Si      -0.86596011      -3.32050507      -0.39741818       0.00000000
Si      -2.88124488      -0.45835207      -2.10180917       0.00000000
Si       0.98448615      -2.36371192       2.55065874       0.00000000
Si      -1.57747473       1.20121515      -3.17533596       0.00000000
Si      -0.47239371      -0.55457710       3.68975366       0.00000000
