10
Lattice="16.28999089631971 0.0 0.0 0.0 16.28999089631971 0.0 0.0 0.0 34.56409401068381" Properties=species:S:1:pos:R:3:initial_magmoms:R:1 pbc="T T T"
Si       2.33056143       0.18337653      -0.10832393       0.00000000
Si      -0.33256035       1.45378476       1.87064438       0.00000000
Si      -0.10132380      -2.21931702       0.91117916       0.00000000
Si      -1.63949076       0.34288821      -1.73332116       0.00000000
Si       0.97445151      -1.72574631       2.97572821       0.00000000
Si      -3.26594952       1.52528157      -0.46250240       0.00000000
Si       2.81859354      -0.30050163       2.29046010       0.00000000
Si      -2.19949209      -1.95160716      -2.20847402       0.00000000
Si      -2.21669433       2.64466521       1.29390758       0.00000000
Si      -0.41549274       0.01747917       3.78089923       0.00000000
