10
Lattice="16.28999089631971 0.0 0.0 0.0 16.28999089631971 0.0 0.0 0.0 34.56409401068381" Properties=species:S:1:pos:R:3:initial_magmoms:R:1 pbc="T T T"
Si       1.50928479      -1.10465748       1.43202578       0.00000000
Si      -1.49450976      -1.24067898      -1.36860063       0.00000000
Si       1.15396731       1.41698565      -1.55213607       0.00000000
Si      -0.82233549       1.47343050       1.72405797       0.00000000
Si       3.22537113       0.65796939       1.24168121       0.00000000
Si       2.48994279      -2.74688496      -0.09823121       0.00000000
Si       2.66365935       2.63117709      -0.11392332       0.00000000
Si      -2.57079006       2.73178413       0.41701603       0.00000000
Si       2.45817729       0.01514970      -2.94451681       0.00000000
Si      -0.26215497      -2.69549001      -2.92205014       0.00000000
