10
Lattice="16.28999089631971 0.0 0.0 0.0 16.28999089631971 0.0 0.0 0.0 34.56409401068381" Properties=species:S:1:pos:R:3:initial_magmoms:R:1 pbc="T T T"
Si       1.35238114       1.29603240      -1.40813994       0.00000000
Si       1.46338120      -1.21611366       1.42651972       0.00000000
Si      -1.26767881       1.49139837       1.41330586       0.00000000
Si      -0.85677092      -1.78960311      -1.51677495       0.00000000
Si       0.61476994       0.35844516      -3.52792245       0.00000000
Si      -2.58558694      -2.57041539       0.01349729       0.00000000
Si       0.09755429      -2.57777847       2.79884636       0.00000000
Si       2.69762563       2.69177589       0.06206332       0.00000000
Si       2.87515405      -2.51004465      -0.04869392       0.00000000
Si      -2.62199509       0.14335200       2.79832790       0.00000000
