10
Lattice="16.28999089631971 0.0 0.0 0.0 16.28999089631971 0.0 0.0 0.0 34.56409401068381" Properties=species:S:1:pos:R:3:initial_magmoms:R:1 pbc="T T T"
Si      -1.34962650       1.35208629      -1.35778206       0.00000000
Si      -1.35584928      -1.35865116       1.35709078       0.00000000
Si       1.35909099       1.35602847       1.35681427       0.00000000
Si       1.35948195      -1.35866745      -1.36611202       0.00000000
Si       0.00066789       2.69370057      -2.72734358       0.00000000
Si      -2.71349046       2.71380705      -0.00217754       0.00000000
Si      -2.71350675      -0.00094482       2.71435438       0.00000000
Si       0.00123804       2.71428933       2.71411243       0.00000000
Si       2.71562445       2.71293674      -0.00245405       0.00000000
Si      -2.71226871      -2.71630863      -0.00086410       0.00000000
