10
Lattice="16.28999089631971 0.0 0.0 0.0 16.28999089631971 0.0 0.0 0.0 34.56409401068381" Properties=species:S:1:pos:R:3:initial_magmoms:R:1 pbc="T T T"
Si      -1.35698958      -1.35624024       1.35719447       0.00000000
Si       1.35645201       1.35687555       1.35764381       0.00000000
Si      -1.35739683       1.35755973      -1.35712535       0.00000000
Si       1.35762489      -1.35711990      -1.35736729       0.00000000
Si      -0.00175932      -2.71305063       2.71539131       0.00000000
Si      -2.71482624      -2.71412577      -0.00010369       0.00000000
Si       2.71498914      -2.71438641       0.00024195       0.00000000
Si       2.71599912       0.00040725      -2.71407787       0.00000000
Si      -2.71648782       0.00153126      -2.71393961       0.00000000
Si      -0.00086337       2.71446800      -2.71639367       0.00000000
