10
Lattice="16.28999089631971 0.0 0.0 0.0 16.28999089631971 0.0 0.0 0.0 34.56409401068381" Properties=species:S:1:pos:R:3:initial_magmoms:R:1 pbc="T T T"
Si      -1.35565380       1.35746240      -1.35840422       0.00000000
Si      -1.35755973      -1.35763329       1.35743642       0.00000000
Si       1.35729487       1.35782893       1.35754012       0.00000000
Si       1.35589230      -1.35892020      -1.35836965       0.00000000
Si      -0.00042660      -2.70911685      -2.71495234       0.00000000
Si       2.71372571      -2.71449255       0.00034564       0.00000000
Si       2.71449134       2.71467841       0.00145169       0.00000000
Si       2.71454021       0.00024779       2.71463090       0.00000000
Si      -0.00032402       2.71462954       2.71483828       0.00000000
Si      -2.71441899      -2.71516044       0.00062215       0.00000000
