10
Lattice="16.28999089631971 0.0 0.0 0.0 16.28999089631971 0.0 0.0 0.0 34.56409401068381" Properties=species:S:1:pos:R:3:initial_magmoms:R:1 pbc="T T T"
Si       1.35653346       1.35648160       1.35798945       0.00000000
Si      -1.35713619       1.35724723      -1.35688340       0.00000000
Si       1.35762489      -1.35792502      -1.35715991       0.00000000
Si      -1.35878148      -1.35898387       1.35774750       0.00000000
Si      -0.00053757       2.71428894      -2.71338659       0.00000000
Si       2.71486060       2.71433781       0.00024195       0.00000000
Si       0.00159642       2.71404459       2.71528761       0.00000000
Si       0.00076563      -2.71545217      -2.71397418       0.00000000
Si       2.71518462      -0.00029173      -2.71459633       0.00000000
Si      -2.71541268       2.71487538       0.00010369       0.00000000
