10
Lattice="16.28999089631971 0.0 0.0 0.0 16.28999089631971 0.0 0.0 0.0 34.56409401068381" Properties=species:S:1:pos:R:3:initial_magmoms:R:1 pbc="T T T"
Si       1.37375918      -1.36120706      -1.32356359       0.00000000
Si      -1.33951041       1.37194380      -1.35411827       0.00000000
Si      -1.74617397      -0.91000827       1.28505917       0.00000000
Si       1.43108206       1.34262180       1.41737060       0.00000000
Si      -0.25192485       2.29006449       2.76958784       0.00000000
Si       2.13246593      -0.30828825       2.93432040       0.00000000
Si      -2.67142968      -2.67831155       0.05156966       0.00000000
Si      -2.75413401       2.63101419      -0.01565754       0.00000000
Si       0.01032164      -2.69476249      -2.69700320       0.00000000
Si      -3.41796780       0.86995116       1.46389389       0.00000000
