10
Lattice="16.28999089631971 0.0 0.0 0.0 16.28999089631971 0.0 0.0 0.0 34.56409401068381" Properties=species:S:1:pos:R:3:initial_magmoms:R:1 pbc="T T T"
Si       0.92525571       1.76830328       1.23348951       0.00000000
Si       1.33022511      -1.37946947      -1.37025971       0.00000000
Si      -1.19135286      -1.46525261       1.43904229       0.00000000
Si      -1.41012756       1.34398299      -1.37295571       0.00000000
Si      -1.55005866       0.21035375       3.18169576       0.00000000
Si       2.67142968       2.67831155      -0.05156966       0.00000000
Si      -2.70104490      -2.67944405       0.00082954       0.00000000
Si       2.58760134      -2.78464487       0.16507821       0.00000000
Si       2.68175132      -0.01645094      -2.74857286       0.00000000
Si      -0.03394836       2.69803874      -2.74774332       0.00000000
