10
Lattice="16.28999089631971 0.0 0.0 0.0 16.28999089631971 0.0 0.0 0.0 34.56409401068381" Properties=species:S:1:pos:R:3:initial_magmoms:R:1 pbc="T T T"
Si      -0.92525571      -1.76830328      -1.23348951       0.00000000
Si       1.74617397       0.91000827      -1.28505917       0.00000000
Si      -1.67179383       1.77995943       0.17883472       0.00000000
Si       1.32416523       1.06815159       2.70650833       0.00000000
Si      -0.43919469      -0.80690397       3.12770661       0.00000000
Si       0.40666356       2.28195207      -2.63917744       0.00000000
Si      -2.47531437      -1.55794954       1.94820625       0.00000000
Si      -2.33538327      -0.42432029      -2.60644522       0.00000000
Si       1.49424912       3.20007276       1.48452867       0.00000000
Si      -2.11660857      -3.23355590       0.20555278       0.00000000
