10
Lattice="16.28999089631971 0.0 0.0 0.0 16.28999089631971 0.0 0.0 0.0 34.56409401068381" Properties=species:S:1:pos:R:3:initial_magmoms:R:1 pbc="T T T"
Si       0.28069299      -2.26843188       0.57988213       0.00000000
Si      -1.72196703       0.98409861       1.27876850       0.00000000
Si       0.16658154       0.51483747      -2.29699272       0.00000000
Si       1.94606856       1.15920145       0.70427837       0.00000000
Si      -0.27419328      -2.20245738      -2.60409486       0.00000000
Si       0.79568505       2.83140416      -2.03620648       0.00000000
Si       1.44163242      -3.08309478      -1.26221229       0.00000000
Si       1.09880937       2.29023407       2.60395661       0.00000000
Si      -0.92673810       3.14692517       1.58486829       0.00000000
Si       3.63828095      -0.45569697       0.68578657       0.00000000
