10
Lattice="16.28999089631971 0.0 0.0 0.0 16.28999089631971 0.0 0.0 0.0 34.56409401068381" Properties=species:S:1:pos:R:3:initial_magmoms:R:1 pbc="T T T"
Si       1.76868807       1.51143507       0.13528394       0.00000000
Si       0.84725919      -1.13103262      -1.89967823       0.00000000
Si      -0.12841407      -1.43104881       1.91301998       0.00000000
Si      -2.02554747       0.85669110      -1.01908832       0.00000000
Si      -2.82077640      -1.30613546      -1.32518810       0.00000000
Si       1.58708583       2.53527786      -1.95484256       0.00000000
Si       2.08660143      -2.15865958       1.97744749       0.00000000
Si      -1.09880937      -2.29023407      -2.60395661       0.00000000
Si       1.67992254       0.61424703      -3.31815488       0.00000000
Si       1.26074826       3.00355020       1.92857383       0.00000000
