10
Lattice="16.28999089631971 0.0 0.0 0.0 16.28999089631971 0.0 0.0 0.0 34.56409401068381" Properties=species:S:1:pos:R:3:initial_magmoms:R:1 pbc="T T T"
Si       0.83396981      -0.29888892       2.08836373       0.00000000
Si      -0.88350837      -1.96705008      -0.84464324       0.00000000
Si       1.79278292       1.07773011      -1.08092352       0.00000000
Si      -1.81671360       1.56105441       0.41504587       0.00000000
Si      -1.91911254      -0.38193534      -2.28814430       0.00000000
Si       2.75702060       1.06222203       1.86463022       0.00000000
Si      -0.83688639       3.41964567      -0.84879093       0.00000000
Si       0.71845579       2.61259020      -2.40552403       0.00000000
Si      -3.51328452       0.71113995      -0.98165538       0.00000000
Si       0.79949854      -2.91449277      -2.19686048       0.00000000
