10
Lattice="16.28999089631971 0.0 0.0 0.0 16.28999089631971 0.0 0.0 0.0 34.56409401068381" Properties=species:S:1:pos:R:3:initial_magmoms:R:1 pbc="T T T"
Si      -1.35645201      -1.35687555      -1.35764381       0.00000000
Si       1.35871632      -1.35633798       1.35906094       0.00000000
Si       1.35878148       1.35898387      -1.35774750       0.00000000
Si      -1.35826020       1.36349967       1.35792032       0.00000000
Si      -0.00250866      -2.70629028       2.71373223       0.00000000
Si      -2.71344159      -2.71311579      -0.00044933       0.00000000
Si      -2.71309950       2.71538240      -0.00069128       0.00000000
Si      -2.71384884       0.00068418      -2.71476915       0.00000000
Si       0.00117288      -2.71399545      -2.71501110       0.00000000
Si       2.71655298      -2.71283886       0.00038021       0.00000000
