10
Lattice="16.28999089631971 0.0 0.0 0.0 16.28999089631971 0.0 0.0 0.0 34.56409401068381" Properties=species:S:1:pos:R:3:initial_magmoms:R:1 pbc="T T T"
Si       1.35736831       1.35635427      -1.35771294       0.00000000
Si      -1.35783666       1.35650088       1.35868073       0.00000000
Si      -1.35801585      -1.35842310      -1.35778206       0.00000000
Si       1.35791578      -1.35982404       1.35982135       0.00000000
Si      -0.01277136      -2.71666701       2.70388146       0.00000000
Si      -0.00014661       2.71389771      -2.71528761       0.00000000
Si      -2.71655298       2.71283886      -0.00038021       0.00000000
Si       2.71405802      -0.00060273      -2.71556413       0.00000000
Si      -0.00114030      -2.71518462      -2.71539131       0.00000000
Si      -2.71538010      -0.00115659      -2.71539131       0.00000000
