10
Lattice="16.28999089631971 0.0 0.0 0.0 16.28999089631971 0.0 0.0 0.0 34.56409401068381" Properties=species:S:1:pos:R:3:initial_magmoms:R:1 pbc="T T T"
Si       1.19135286       1.46525261      -1.43904229       0.00000000
Si      -1.50969204      -1.21419144      -1.43821276       0.00000000
Si      -0.35870580       1.67560636       1.74265347       0.00000000
Si       0.56171178      -1.97320770       1.35560452       0.00000000
Si      -1.40165676      -0.08990451       2.95699446       0.00000000
Si       2.35809153      -2.87207361       0.09384157       0.00000000
Si      -2.66365935      -2.63117709       0.11392332       0.00000000
Si       2.52157797       0.08578314      -2.80930200       0.00000000
Si       0.92022210      -1.09015938       3.51831566       0.00000000
Si      -0.20548206      -2.61602739      -2.83059350       0.00000000
