10
Lattice="16.28999089631971 0.0 0.0 0.0 16.28999089631971 0.0 0.0 0.0 34.56409401068381" Properties=species:S:1:pos:R:3:initial_magmoms:R:1 pbc="T T T"
Si       1.71582570      -0.88063740       1.34188257       0.00000000
Si      -0.01521486      -1.75979241      -1.60083691       0.00000000
Si       0.44077482       2.71729485       0.30710215       0.00000000
Si       0.55488627      -0.06597450       3.18397699       0.00000000
Si       2.51678871       1.94997816      -0.56270376       0.00000000
Si      -2.56953573       1.12953231      -1.84098837       0.00000000
Si       0.27419328       2.20245738       2.60409486       0.00000000
Si      -1.51563789       3.02626890      -0.94266706       0.00000000
Si       0.17901081      -0.43927614      -3.50459371       0.00000000
Si       1.80825516       1.25584497      -2.80864528       0.00000000
