10
Lattice="16.28999089631971 0.0 0.0 0.0 16.28999089631971 0.0 0.0 0.0 34.56409401068381" Properties=species:S:1:pos:R:3:initial_magmoms:R:1 pbc="T T T"
Si       1.16093943      -0.81466290      -1.84209442       0.00000000
Si      -1.74684186      -1.38753333       0.67140790       0.00000000
Si       0.99105102      -0.08775423       2.12984066       0.00000000
Si      -0.28069299       2.26843188      -0.57988213       0.00000000
Si      -0.55488627       0.06597450      -3.18397699       0.00000000
Si      -0.51036570      -3.21812208       1.58016757       0.00000000
Si       2.96424636       0.66358944      -2.02127478       0.00000000
Si      -0.53385588       1.12247874       3.53127720       0.00000000
Si       1.36529748      -2.34629757       2.66955929       0.00000000
Si       1.66537557       3.42763333       0.12439624       0.00000000
