10
Lattice="16.28999089631971 0.0 0.0 0.0 16.28999089631971 0.0 0.0 0.0 34.56409401068381" Properties=species:S:1:pos:R:3:initial_magmoms:R:1 pbc="T T T"
Si       2.11001179       0.93856464       0.09311572       0.00000000
Si      -0.99105102       0.08775423      -2.12984066       0.00000000
Si       0.37424646      -2.25854334       0.53971863       0.00000000
Si      -1.52490690       1.21023297       1.40143654       0.00000000
Si      -2.73789288      -1.29977910      -1.45843276       0.00000000
Si      -1.50141672      -3.13036785      -0.54967309       0.00000000
Si       0.64242873      -2.06550684       2.91586316       0.00000000
Si       2.36653694       1.90048914      -2.02393622       0.00000000
Si       1.91366679       2.48776060       1.87168130       0.00000000
Si      -0.30134871       3.21537137       1.80725379       0.00000000
