10
Lattice="16.28999089631971 0.0 0.0 0.0 16.28999089631971 0.0 0.0 0.0 34.56409401068381" Properties=species:S:1:pos:R:3:initial_magmoms:R:1 pbc="T T T"
Si      -1.98254254      -1.25985231      -0.09622649       0.00000000
Si       1.10288839       0.02911023      -2.08307542       0.00000000
Si      -0.27000675       1.94052996       1.36379622       0.00000000
Si       1.55117290      -1.43045748       1.16380826       0.00000000
Si       0.38953300       0.35026758       3.00541878       0.00000000
Si      -1.47460273      -2.75196744      -1.88951638       0.00000000
Si       2.28072055      -2.03877495      -2.28333989       0.00000000
Si       2.85267874       1.65112182      -2.00952298       0.00000000
Si      -2.03330218      -2.59701696       2.03275007       0.00000000
Si       0.28760647      -3.30351426       2.01947745       0.00000000
