10
Lattice="16.28999089631971 0.0 0.0 0.0 16.28999089631971 0.0 0.0 0.0 34.56409401068381" Properties=species:S:1:pos:R:3:initial_magmoms:R:1 pbc="T T T"
Si      -1.72881602      -0.78081228       1.53027224       0.00000000
Si       0.85677092       1.78960311       1.51677495       0.00000000
Si       1.91083329      -1.71940950       0.18132334       0.00000000
Si      -0.95129432      -0.79923627      -2.98381621       0.00000000
Si       1.47154086       2.14804827      -2.01114750       0.00000000
Si       1.36961433      -1.50573357      -2.99708883       0.00000000
Si      -0.40999391      -2.15205561       2.94943325       0.00000000
Si       2.32015212       0.57348945       2.94329467       0.00000000
Si       2.20915206       3.08563551       0.10863501       0.00000000
Si      -3.27633344      -2.00663478       0.14572230       0.00000000
