10
Lattice="16.28999089631971 0.0 0.0 0.0 16.28999089631971 0.0 0.0 0.0 34.56409401068381" Properties=species:S:1:pos:R:3:initial_magmoms:R:1 pbc="T T T"
Si      -1.37068714      -1.35684297       1.34406011       0.00000000
Si       1.35664723      -1.35648459      -1.36075458       0.00000000
Si      -1.35791578       1.35982404      -1.35982135       0.00000000
Si       1.35931228       1.36591650       1.38294474       0.00000000
Si      -0.02573587      -2.74111830       2.65421283       0.00000000
Si      -2.71306459      -2.71412577      -0.00404400       0.00000000
Si       2.71452625      -2.71399545      -0.00252318       0.00000000
Si       2.71542220       2.71384884       0.00000000       0.00000000
Si      -0.00067214      -2.71412577      -2.71739603       0.00000000
Si      -2.71575244       2.71632492      -0.00114062       0.00000000
