10
Lattice="16.28999089631971 0.0 0.0 0.0 16.28999089631971 0.0 0.0 0.0 34.56409401068381" Properties=species:S:1:pos:R:3:initial_magmoms:R:1 pbc="T T T"
Si       0.99424549      -1.41305976      -1.59772614       0.00000000
Si       1.83904489       0.93169026       1.14154897       0.00000000
Si      -0.86962780      -1.20138750       1.84392632       0.00000000
Si      -1.92574420       0.94638384      -1.03599017       0.00000000
Si       0.26251335      -3.33814680       1.50118857       0.00000000
Si       3.35891818      -0.89264313       1.36777109       0.00000000
Si      -3.23492263      -1.00172097       1.69917181       0.00000000
Si      -0.71828311      -2.47044366      -2.78628230       0.00000000
Si       1.57641751      -3.45157407      -0.53671155       0.00000000
Si      -3.82043410      -0.47327337      -0.52755206       0.00000000
