10
Lattice="16.28999089631971 0.0 0.0 0.0 16.28999089631971 0.0 0.0 0.0 34.56409401068381" Properties=species:S:1:pos:R:3:initial_magmoms:R:1 pbc="T T T"
Si       0.78985323       0.38905407      -2.17048806       0.00000000
Si       0.02119329       2.30537709       0.59619639       0.00000000
Si      -2.00208010      -1.30445433      -0.04787130       0.00000000
Si       1.88612136      -0.81026460       1.44260240       0.00000000
Si      -1.34254035      -2.89471671       1.59375127       0.00000000
Si       0.50689593       2.23425495       2.84435001       0.00000000
Si       2.73142575       1.69738542      -1.91609619       0.00000000
Si      -2.02672361       3.17327571      -0.22705166       0.00000000
Si       0.99847926      -2.93237919       2.18382981       0.00000000
Si      -0.83020356       1.51602885      -3.46335872       0.00000000
