10
Lattice="16.28999089631971 0.0 0.0 0.0 16.28999089631971 0.0 0.0 0.0 34.56409401068381" Properties=species:S:1:pos:R:3:initial_magmoms:R:1 pbc="T T T"
Si      -1.21661280      -1.41696936      -1.43351204       0.00000000
Si       1.51889263      -1.43531190       1.17749565       0.00000000
Si       1.50090847       1.21495707      -1.49745565       0.00000000
Si      -0.77057239      -0.53374185       2.74667183       0.00000000
Si       1.42993294      -0.15848541       3.36326105       0.00000000
Si      -2.47398903      -0.01179396      -2.96884995       0.00000000
Si       2.88254482       2.60228093      -0.11381963       0.00000000
Si      -2.63747547      -2.96965071      -0.06570638       0.00000000
Si       0.24097471       2.68478001      -2.97372349       0.00000000
Si       0.23524063      -2.71406061      -2.96072738       0.00000000
