10
Lattice="10.86 0.0 0.0 0.0 10.86 0.0 0.0 0.0 10.86" Properties=species:S:1:pos:R:3:initial_magmoms:R:1 pbc="T T T"
Si      -1.28404296       1.29379524      -1.18283862       0.00000000
Si       1.43095704      -1.42120476      -1.18283862       0.00000000
Si       1.39165470       1.16181366       1.57490634       0.00000000
Si      -1.28404296      -1.42120476       1.53216138       0.00000000
Si       0.04890258       2.47127988       2.56829226       0.00000000
Si      -2.64154296      -0.06370476      -2.54033862       0.00000000
Si      -0.09690378       2.52898992      -2.69760228       0.00000000
Si      -2.64154296       2.65129524       0.17466138       0.00000000
Si       0.07345704      -2.77870476      -2.54033862       0.00000000
Si       2.98869372      -0.09648024      -2.33524752       0.00000000
