10
Lattice="10.86 0.0 0.0 0.0 10.86 0.0 0.0 0.0 10.86" Properties=species:S:1:pos:R:3:initial_magmoms:R:1 pbc="T T T"
Si      -1.31702478       0.94602546      -1.42743840       0.00000000
Si       1.42928460       1.57380948       0.89305038       0.00000000
Si      -1.31702478      -1.76897454       1.28756160       0.00000000
Si       1.39797522      -1.76897454      -1.42743840       0.00000000
Si       0.15409254       2.25185358      -2.37652638       0.00000000
Si      -0.06576816       2.24138454       2.59733190       0.00000000
Si       1.50411000       2.98689096      -0.90868878       0.00000000
Si      -2.67452478       2.30352546      -0.06993840       0.00000000
Si       2.68997856      -0.16231356       2.37095520       0.00000000
Si      -2.67452478      -0.41147454       2.64506160       0.00000000
