10
Lattice="10.86 0.0 0.0 0.0 10.86 0.0 0.0 0.0 10.86" Properties=species:S:1:pos:R:3:initial_magmoms:R:1 pbc="T T T"
Si       1.54362954       1.11481158       1.43964504       0.00000000
Si      -1.17137046      -1.60018842       1.43964504       0.00000000
Si       1.54362954      -1.60018842      -1.27535496       0.00000000
Si      -0.08872620       2.26524396      -2.49884256       0.00000000
Si      -2.59436712       0.00647256       2.52303864       0.00000000
Si      -2.35301448      -0.21107496      -2.78610042       0.00000000
Si       2.90112954       2.47231158       0.08214504       0.00000000
Si       0.44043816       2.27209662       3.07282614       0.00000000
Si      -2.52887046      -2.95768842       0.08214504       0.00000000
Si       2.90112954      -0.24268842      -2.63285496       0.00000000
