10
Lattice="10.86 0.0 0.0 0.0 10.86 0.0 0.0 0.0 10.86" Properties=species:S:1:pos:R:3:initial_magmoms:R:1 pbc="T T T"
Si       0.07482540       1.41308148      -1.80173916       0.00000000
Si      -1.42928460      -1.57380948      -0.89305038       0.00000000
Si      -1.49505276       0.66757506       1.70428152       0.00000000
Si       1.26069396      -1.73612304       1.47790482       0.00000000
Si      -2.74630938       2.08721598       0.39451122       0.00000000
Si      -1.27519206       0.67804410      -3.26957676       0.00000000
Si      -2.74630938      -0.62778402      -2.32048878       0.00000000
Si      -1.29103680       3.29872500      -1.05395214       0.00000000
Si      -0.03130938       2.08721598       3.10951122       0.00000000
Si      -0.03130938      -3.34278402      -2.32048878       0.00000000
