10
Lattice="10.86 0.0 0.0 0.0 10.86 0.0 0.0 0.0 10.86" Properties=species:S:1:pos:R:3:initial_magmoms:R:1 pbc="T T T"
Si       1.10319138       1.55771496       1.08181890       0.00000000
Si      -1.61180862      -1.15728504       1.08181890       0.00000000
Si       1.10319138      -1.15728504      -1.63318110       0.00000000
Si       2.46069138       0.20021496       2.43931890       0.00000000
Si      -0.25430862      -2.51478504       2.43931890       0.00000000
Si       2.46069138      -2.51478504      -0.27568110       0.00000000
Si      -0.25430862       2.91521496       2.43931890       0.00000000
Si       2.46069138       2.91521496      -0.27568110       0.00000000
Si      -3.03480528      -2.26562406      -0.54978750       0.00000000
Si      -0.44043816      -2.27209662      -3.07282614       0.00000000
