10
Lattice="16.28999089631971 0.0 0.0 0.0 16.28999089631971 0.0 0.0 0.0 34.279985188174585" Properties=species:S:1:pos:R:3:initial_magmoms:R:1 pbc="T T T"
Si      -1.28637732       1.37559752      -1.32501130       0.00000000
Si      -1.36231152      -1.34066454       1.34175708       0.00000000
Si       1.35252612       1.37427966       1.34470516       0.00000000
Si       1.38357486      -1.30454961      -1.41657319       0.00000000
Si       0.50041251       1.98176959      -2.76990461       0.00000000
Si      -2.51777263      -0.19091634      -2.46633113       0.00000000
Si       2.37192174       0.32483550      -2.84977702       0.00000000
Si      -0.00661374      -2.69856636       2.69982801       0.00000000
Si       2.70866862       0.01670137       2.70034221       0.00000000
Si      -2.72007310       0.01493932       2.69979373       0.00000000
