10
Lattice="16.28999089631971 0.0 0.0 0.0 16.28999089631971 0.0 0.0 0.0 34.279985188174585" Properties=species:S:1:pos:R:3:initial_magmoms:R:1 pbc="T T T"
Si       1.33968960       1.37042598       1.38423343       0.00000000
Si      -1.37367054      -1.34945083       1.38557035       0.00000000
Si      -1.44467865       1.33181868      -1.33315623       0.00000000
Si       1.41183801      -1.38998035      -1.54626130       0.00000000
Si       2.68457571      -2.70310096       0.01496322       0.00000000
Si       2.70635544       2.70994291      -0.01031485       0.00000000
Si      -2.72201013      -2.70684766       0.01442160       0.00000000
Si       2.69781948       0.01067391       2.74487536       0.00000000
Si      -0.01759320      -2.70538156       2.74628084       0.00000000
Si      -0.01889640       2.72634694       2.74655508       0.00000000
