10
Lattice="16.28999089631971 0.0 0.0 0.0 16.28999089631971 0.0 0.0 0.0 34.279985188174585" Properties=species:S:1:pos:R:3:initial_magmoms:R:1 pbc="T T T"
Si       0.66619584      -0.31717119      -2.18003688       0.00000000
Si      -1.02842028       2.08301045       0.07089105       0.00000000
Si      -0.97678098      -1.58641698       1.46485315       0.00000000
Si       1.86098589       0.73253687       1.51874131       0.00000000
Si       1.16624997      -1.33233336       2.49308188       0.00000000
Si      -1.76044401       1.83763417       2.49486444       0.00000000
Si       0.95275323       3.34708186      -1.01225425       0.00000000
Si       3.46520880      -0.48218726      -1.05349309       0.00000000
Si      -2.69156901      -0.32925185       2.45441403       0.00000000
Si       0.55718316       1.89069070       3.17295720       0.00000000
