10
Lattice="16.28999089631971 0.0 0.0 0.0 16.28999089631971 0.0 0.0 0.0 34.279985188174585" Properties=species:S:1:pos:R:3:initial_magmoms:R:1 pbc="T T T"
Si      -1.30028409       1.39827496       1.36565367       0.00000000
Si       0.86108940       1.85346643      -1.18546700       0.00000000
Si       1.44467865      -1.33181868       1.33315623       0.00000000
Si      -1.62492750      -1.01179471      -1.47003084       0.00000000
Si      -2.61327438      -2.64117982      -0.03682701       0.00000000
Si      -2.73328281       2.62307119      -0.08874065       0.00000000
Si      -2.64432312       0.03764945       2.72445134       0.00000000
Si      -3.49643673       0.64513939      -1.39015843       0.00000000
Si       0.07100811      -2.68126951       2.71872658       0.00000000
Si      -0.91911438       3.46692577      -1.38738175       0.00000000
