10
Lattice="16.28999089631971 0.0 0.0 0.0 16.28999089631971 0.0 0.0 0.0 34.279985188174585" Properties=species:S:1:pos:R:3:initial_magmoms:R:1 pbc="T T T"
Si       1.35721764      -1.35731375      -1.35673401       0.00000000
Si       1.35690813       1.35668007       1.35831089       0.00000000
Si      -1.35733167       1.35738054      -1.35735105       0.00000000
Si      -1.35814617      -1.35834002       1.35731677       0.00000000
Si       2.71324611       0.00068418      -2.71384510       0.00000000
Si      -0.00071676      -2.71377292      -2.71346802       0.00000000
Si       0.00114030       2.71368594      -2.71387938       0.00000000
Si      -2.71378368      -0.00167787      -2.71494206       0.00000000
Si      -0.00185706      -2.71229798       2.71727310       0.00000000
Si      -2.71494027      -2.71489968      -0.00051420       0.00000000
