10
Lattice="16.28999089631971 0.0 0.0 0.0 16.28999089631971 0.0 0.0 0.0 34.279985188174585" Properties=species:S:1:pos:R:3:initial_magmoms:R:1 pbc="T T T"
Si      -1.35793440      -1.35645917      -1.35673401       0.00000000
Si       1.35602847       1.35799793      -1.35711109       0.00000000
Si      -1.35721764       1.35731375       1.35673401       0.00000000
Si       1.35795069      -1.35759253       1.35697397       0.00000000
Si      -2.71407690       0.00111912      -2.71237106       0.00000000
Si       0.00086337      -2.71512828       2.71384510       0.00000000
Si      -0.00030951       2.71399382       2.71504490       0.00000000
Si      -2.71454931       2.71469429      -0.00061704       0.00000000
Si      -2.71433754      -2.71498167      -0.00023996       0.00000000
Si      -2.71536381      -0.00102627       2.71405078       0.00000000
