10
Lattice="16.28999089631971 0.0 0.0 0.0 16.28999089631971 0.0 0.0 0.0 34.279985188174585" Properties=species:S:1:pos:R:3:initial_magmoms:R:1 pbc="T T T"
Si       0.69473592       2.06487023      -0.97434056       0.00000000
Si      -2.14303095      -0.25408362      -1.02822873       0.00000000
Si       0.57761082      -2.02084815      -1.14834587       0.00000000
Si      -0.11645721       0.11632884       2.44622111       0.00000000
Si      -1.16624997       1.33233336      -2.49308188       0.00000000
Si      -0.60906681       3.22302407       0.67987533       0.00000000
Si      -1.86709464      -2.59567338      -1.12942330       0.00000000
Si       1.57214790      -3.04633623       0.66187832       0.00000000
Si       2.50602102      -1.20142857      -2.30183373       0.00000000
Si       0.35860806       2.41460024       2.69735642       0.00000000
