10
Lattice="16.28999089631971 0.0 0.0 0.0 16.28999089631971 0.0 0.0 0.0 34.279985188174585" Properties=species:S:1:pos:R:3:initial_magmoms:R:1 pbc="T T T"
Si       1.96437852       1.19977479       0.42253533       0.00000000
Si      -1.38160377       1.96423191       0.08391745       0.00000000
Si      -0.34091712      -1.79487944       1.57598892       0.00000000
Si       0.65203983      -0.89911026      -2.17534052       0.00000000
Si       3.71962602      -0.29949165      -0.01580308       0.00000000
Si       1.94939172       2.98683666      -1.12318434       0.00000000
Si       1.86036687       1.86450453       2.67459450       0.00000000
Si       1.50170994      -3.18194525       1.31117589       0.00000000
Si      -2.17215747      -2.98971836       0.73002697       0.00000000
Si      -0.34933905       3.56545746      -1.34093093       0.00000000
