10
Lattice="16.28999089631971 0.0 0.0 0.0 16.28999089631971 0.0 0.0 0.0 34.279985188174585" Properties=species:S:1:pos:R:3:initial_magmoms:R:1 pbc="T T T"
Si      -1.35847197      -1.35630540       1.35652833       0.00000000
Si       1.35778779      -1.35518139      -1.35834517       0.00000000
Si       1.35654975       1.35922131       1.35656261       0.00000000
Si      -1.35508365       1.35834165      -1.36359001       0.00000000
Si      -0.01396053      -2.70925506      -2.71402336       0.00000000
Si       2.71210581      -2.71300176       0.00003428       0.00000000
Si      -0.00114030      -2.71368594       2.71387938       0.00000000
Si       2.71404432       0.00171045       2.71384510       0.00000000
Si      -2.71575477       0.00156384       2.71432502       0.00000000
Si      -2.71492398      -2.71536381      -0.00106268       0.00000000
