10
Lattice="16.28999089631971 0.0 0.0 0.0 16.28999089631971 0.0 0.0 0.0 34.279985188174585" Properties=species:S:1:pos:R:3:initial_magmoms:R:1 pbc="T T T"
Si      -1.30779378      -0.68279535      -1.73703638       0.00000000
Si       0.47016198       2.23855551      -0.00904992       0.00000000
Si      -0.90010395      -0.00011403       2.11181967       0.00000000
Si       1.91734929      -1.51151652       0.50926374       0.00000000
Si       0.81774171      -1.21832910      -2.85994648       0.00000000
Si      -0.39956112      -3.29734035       0.79395918       0.00000000
Si       1.45398024       2.30510016       2.09653079       0.00000000
Si       1.10690550       0.32109219       3.30946018       0.00000000
Si      -1.96244001       1.31665554      -2.79789967       0.00000000
Si      -1.70336385      -2.13918651       2.44817507       0.00000000
