10
Lattice="16.28999089631971 0.0 0.0 0.0 16.28999089631971 0.0 0.0 0.0 34.279985188174585" Properties=species:S:1:pos:R:3:initial_magmoms:R:1 pbc="T T T"
Si       1.35480672      -1.35511623       1.35920217       0.00000000
Si      -1.35685926      -1.35726651      -1.35693969       0.00000000
Si       1.35809730       1.35786924      -1.35724821       0.00000000
Si      -1.35550719       1.36075257       1.35872225       0.00000000
Si       0.00048870      -2.69944848       2.72244939       0.00000000
Si       0.00058644      -2.71445157      -2.71435930       0.00000000
Si      -2.71448415       2.71453302      -0.00020568       0.00000000
Si      -2.71451673       0.00039096      -2.71459926       0.00000000
Si       2.71467963       2.71461447       0.00065132       0.00000000
Si       0.00104256       2.71508688      -2.71432502       0.00000000
