10
Lattice="16.28999089631971 0.0 0.0 0.0 16.28999089631971 0.0 0.0 0.0 34.279985188174585" Properties=species:S:1:pos:R:3:initial_magmoms:R:1 pbc="T T T"
Si      -1.41038820       1.77816753      -0.08881949       0.00000000
Si      -1.48906890      -1.68143751       0.73787709       0.00000000
Si       0.77978601      -1.02618855      -2.10835739       0.00000000
Si       1.18257255       0.55943118       2.11946411       0.00000000
Si       0.45745578      -3.05313696       0.64199592       0.00000000
Si       2.32178112      -2.33740323      -0.71916021       0.00000000
Si      -2.34734013       1.73512935      -2.22172136       0.00000000
Si       3.37877406       0.40718484       1.54767364       0.00000000
Si      -0.52939242       3.61523970       1.27099972       0.00000000
Si      -2.27799360      -1.35060390       2.93282577       0.00000000
