10
Lattice="16.28999089631971 0.0 0.0 0.0 16.28999089631971 0.0 0.0 0.0 34.279985188174585" Properties=species:S:1:pos:R:3:initial_magmoms:R:1 pbc="T T T"
Si       2.19620151      -0.15224634      -0.57179047       0.00000000
Si      -0.71742789       2.03032044       0.96175980       0.00000000
Si      -0.05189994      -1.56680478       1.78105191       0.00000000
Si      -1.18257255      -0.55943118      -2.11946411       0.00000000
Si      -2.17346067      -0.99502578       2.54590736       0.00000000
Si      -1.71196497       3.05580852      -0.84846439       0.00000000
Si       0.25870149      -3.54602349       0.62811252       0.00000000
Si      -2.59296075       1.21873635      -2.20828360       0.00000000
Si      -2.11792806       1.36050822       2.72447191       0.00000000
Si       3.50000424       0.18409329       1.31374689       0.00000000
