10
Lattice="16.28999089631971 0.0 0.0 0.0 16.28999089631971 0.0 0.0 0.0 34.279985188174585" Properties=species:S:1:pos:R:3:initial_magmoms:R:1 pbc="T T T"
Si       1.83124035       1.19483892       0.84596195       0.00000000
Si      -0.69410061      -2.13818535       0.68923377       0.00000000
Si      -1.74912409       1.16765743       1.15640167       0.00000000
Si       0.20162133      -0.61865415      -2.33813626       0.00000000
Si      -3.63557681       0.31786188      -0.04127313       0.00000000
Si      -3.05293238      -2.02941702       0.42496921       0.00000000
Si       3.67386741      -0.19222689       0.58114891       0.00000000
Si       2.17215747       2.98971836      -0.73002697       0.00000000
Si       0.18994140      -2.61176823       2.79933943       0.00000000
Si       0.38760426      -0.53713899       3.81214216       0.00000000
