10
Lattice="16.28999089631971 0.0 0.0 0.0 16.28999089631971 0.0 0.0 0.0 34.279985188174585" Properties=species:S:1:pos:R:3:initial_magmoms:R:1 pbc="T T T"
Si       0.40301460      -1.81193670       1.44716466       0.00000000
Si       2.29793256       0.68442435      -0.04929465       0.00000000
Si      -1.74348612       1.60643835       0.40584097       0.00000000
Si      -0.62193591      -1.23224076      -1.97473393       0.00000000
Si       2.87629272      -0.04984740      -2.25397885       0.00000000
Si       1.47180150      -1.86528645      -2.78970675       0.00000000
Si       0.95526189      -0.65500461       3.57633001       0.00000000
Si      -1.92059100       2.86189236      -1.62281541       0.00000000
Si      -1.54473183      -3.28311918      -1.31463817       0.00000000
Si      -1.23558021      -3.50474463       1.05417869       0.00000000
