10
Lattice="16.28999089631971 0.0 0.0 0.0 16.28999089631971 0.0 0.0 0.0 34.279985188174585" Properties=species:S:1:pos:R:3:initial_magmoms:R:1 pbc="T T T"
Si       1.50342039       1.93082112       0.11144429       0.00000000
Si       0.92916531      -1.75925484       1.45068965       0.00000000
Si      -0.55224729      -1.15693209      -2.12916535       0.00000000
Si      -1.84694391       1.08667332       1.28539732       0.00000000
Si       1.85549616      -0.14374296       2.87285089       0.00000000
Si       3.25568682       1.15124688       1.47799648       0.00000000
Si      -0.95526189       0.65500461      -3.57633001       0.00000000
Si      -0.76266522       2.66706396       2.71797383       0.00000000
Si      -0.83098548      -2.90460474       2.62223663       0.00000000
Si       1.25045298      -2.56033188      -2.88267413       0.00000000
