10
Lattice="16.28999089631971 0.0 0.0 0.0 16.28999089631971 0.0 0.0 0.0 34.279985188174585" Properties=species:S:1:pos:R:3:initial_magmoms:R:1 pbc="T T T"
Si      -1.38357486       1.30454961       1.41657319       0.00000000
Si       1.33594290      -1.39748652       1.38440483       0.00000000
Si       0.98834688       1.62938511      -1.43320383       0.00000000
Si      -1.37086866      -1.52557479      -1.41798351       0.00000000
Si      -0.88316235       3.28631921      -1.35333142       0.00000000
Si       2.61327438       2.64117982       0.03682701       0.00000000
Si      -2.66995218       2.68014713       0.09156189       0.00000000
Si       2.68428249      -0.04008969       2.75555359       0.00000000
Si      -0.03104874       2.67882927       2.76127835       0.00000000
Si       2.73717612      -2.72730438      -0.03391321       0.00000000
