10
Lattice="16.28999089631971 0.0 0.0 0.0 16.28999089631971 0.0 0.0 0.0 34.279985188174585" Properties=species:S:1:pos:R:3:initial_magmoms:R:1 pbc="T T T"
Si      -1.88645272      -0.84979554      -1.19767479       0.00000000
Si       0.06552653       2.35819741       0.39182045       0.00000000
Si       1.74912409      -1.16765743      -1.15640167       0.00000000
Si       0.05249453      -0.72517704       2.30958101       0.00000000
Si       1.05502348      -3.30584277      -0.46716790       0.00000000
Si      -1.30380829      -3.19707444      -0.73143245       0.00000000
Si       3.58036444       0.02718149      -0.31043972       0.00000000
Si      -1.75886944       2.84059318       1.76768270       0.00000000
Si       2.13672835      -1.70479641       2.65574050       0.00000000
Si      -1.63555414      -0.13515324      -3.50992964       0.00000000
