10
Lattice="16.28999089631971 0.0 0.0 0.0 16.28999089631971 0.0 0.0 0.0 34.279985188174585" Properties=species:S:1:pos:R:3:initial_magmoms:R:1 pbc="T T T"
Si      -1.82439596       0.48239577       1.37586225       0.00000000
Si      -0.06552653      -2.35819741      -0.39182045       0.00000000
Si       0.12924649       1.14186384      -2.11387647       0.00000000
Si       1.54664753       1.08600543       1.53903508       0.00000000
Si       2.45587388       2.54378124      -0.05587641       0.00000000
Si       2.47415126       1.42809543      -2.19433164       0.00000000
Si      -0.01303200      -3.08337446       1.91776056       0.00000000
Si       0.47543180      -1.35550719       3.49450364       0.00000000
Si      -2.49593492       2.68578117       0.98561868       0.00000000
Si       2.60497625      -0.60633009       2.85243916       0.00000000
