10
Lattice="16.28999089631971 0.0 0.0 0.0 16.28999089631971 0.0 0.0 0.0 34.279985188174585" Properties=species:S:1:pos:R:3:initial_magmoms:R:1 pbc="T T T"
Si      -0.24034266       1.68823437      -1.62943145       0.00000000
Si      -1.62189756      -1.69855830       0.22535675       0.00000000
Si      -0.33529707       1.15442343       2.04922438       0.00000000
Si       2.19726036      -0.74028276      -0.55201091       0.00000000
Si       2.89422801      -1.54688211       1.53015655       0.00000000
Si       1.75959693       2.91219329      -1.29893792       0.00000000
Si      -1.82395872       3.03329804       1.04509449       0.00000000
Si      -1.75615974      -2.68587891      -1.88066960       0.00000000
Si      -0.17845695       0.54498195      -3.68314651       0.00000000
Si      -1.14192900      -0.77931360       3.48264276       0.00000000
