10
Lattice="16.28999089631971 0.0 0.0 0.0 16.28999089631971 0.0 0.0 0.0 34.279985188174585" Properties=species:S:1:pos:R:3:initial_magmoms:R:1 pbc="T T T"
Si      -1.35858600       1.35592096       1.36232165       0.00000000
Si       1.35812988      -1.35975207       1.36064193       0.00000000
Si      -1.33968960      -1.37042598      -1.38423343       0.00000000
Si       1.36666584       1.33951693      -1.39454828       0.00000000
Si      -2.71290402       2.71374133       0.00394220       0.00000000
Si       2.71581993       2.71243813       0.00017140       0.00000000
Si       2.71415835      -2.71613011       0.00380508       0.00000000
Si       0.00073305       2.71292683       2.71888426       0.00000000
Si      -2.71336014      -2.71987681       0.00133692       0.00000000
Si      -2.71461447      -0.00207698       2.71943274       0.00000000
