10
Lattice="16.28999089631971 0.0 0.0 0.0 16.28999089631971 0.0 0.0 0.0 34.279985188174585" Properties=species:S:1:pos:R:3:initial_magmoms:R:1 pbc="T T T"
Si      -1.35708732      -1.35753575       1.35687113       0.00000000
Si      -1.35795069       1.35759253      -1.35697397       0.00000000
Si       1.35744570      -1.35784526      -1.35759101       0.00000000
Si       1.35940050       1.35875238       1.35560277       0.00000000
Si      -2.71588509       0.00113336      -2.71370798       0.00000000
Si      -0.00192222       2.71559046      -2.71408506       0.00000000
Si       0.00223173       2.71241391       2.71741022       0.00000000
Si      -2.71503801      -2.71498145       0.00000000       0.00000000
Si       2.71498914      -2.71504661      -0.00017140       0.00000000
Si      -2.71516833       2.71490628      -0.00023996       0.00000000
