10
Lattice="16.28999089631971 0.0 0.0 0.0 16.28999089631971 0.0 0.0 0.0 34.279985188174585" Properties=species:S:1:pos:R:3:initial_magmoms:R:1 pbc="T T T"
Si       1.55411487      -1.32439396       1.13538802       0.00000000
Si       1.24343199       1.54701895      -1.29688112       0.00000000
Si      -1.44632394      -1.24247155      -1.50958855       0.00000000
Si      -1.01239092       1.93232632       1.12530970       0.00000000
Si      -2.26455435      -0.20389053       0.97276368       0.00000000
Si       2.24160174       0.58279756       2.37107934       0.00000000
Si      -2.18121471      -3.05167153      -0.08830529       0.00000000
Si      -2.05749216      -2.25546520       2.21750492       0.00000000
Si       0.04655682      -2.46386317      -2.87492684       0.00000000
Si       2.70770751       2.65757341       0.26806963       0.00000000
