10
Lattice="16.28999089631971 0.0 0.0 0.0 16.28999089631971 0.0 0.0 0.0 34.279985188174585" Properties=species:S:1:pos:R:3:initial_magmoms:R:1 pbc="T T T"
Si      -1.46427552      -1.11055446      -1.56495076       0.00000000
Si      -0.82904697       1.96693605       1.17299319       0.00000000
Si       1.27089693       1.50568470      -1.55758056       0.00000000
Si      -0.46610577      -2.07477585       2.10300971       0.00000000
Si      -2.70770751      -2.65757341      -0.26806963       0.00000000
Si      -3.72009843      -0.72524709       0.85724007       0.00000000
Si      -2.54883114       2.94041016      -0.18158118       0.00000000
Si       0.04929354      -2.40218856      -3.09106227       0.00000000
Si       2.68232769       2.97828441      -0.25480327       0.00000000
Si       0.79755840       3.79802979       1.12143606       0.00000000
