10
Lattice="16.28999089631971 0.0 0.0 0.0 16.28999089631971 0.0 0.0 0.0 34.279985188174585" Properties=species:S:1:pos:R:3:initial_magmoms:R:1 pbc="T T T"
Si      -1.85275944       1.30757875       0.45345590       0.00000000
Si       2.12789754       0.85671391       0.31986672       0.00000000
Si      -0.15143184      -1.76990265       1.52018107       0.00000000
Si       0.25466157      -0.42885054      -2.30694145       0.00000000
Si       0.14825529      -3.33928125      -0.24386795       0.00000000
Si       1.98400797       2.44473478      -1.40328626       0.00000000
Si      -2.44797975      -2.19342636       1.44476506       0.00000000
Si       1.08142794      -2.59596855      -2.24499748       0.00000000
Si      -0.94268601       3.20591761       1.54071480       0.00000000
Si      -3.51078822      -0.12369974       1.30116612       0.00000000
