10
Lattice="16.28999089631971 0.0 0.0 0.0 16.28999089631971 0.0 0.0 0.0 34.279985188174585" Properties=species:S:1:pos:R:3:initial_magmoms:R:1 pbc="T T T"
Si      -0.80166348      -0.30928194      -2.24585448       0.00000000
Si      -0.84393603       2.00735154       1.06418845       0.00000000
Si       1.99671417      -1.19351943       0.78624618       0.00000000
Si      -1.71843210       0.09080046       2.31980815       0.00000000
Si      -2.66128101       1.10203479      -1.82235931       0.00000000
Si       0.96935274      -2.80612843       2.25789160       0.00000000
Si       3.09793446      -1.70422722      -1.38696898       0.00000000
Si       0.94485258       2.83525821       2.40776721       0.00000000
Si      -3.69595665      -0.84380571       1.28228337       0.00000000
Si      -0.40601196      -1.31914791       3.79059174       0.00000000
