10
Lattice="16.28999089631971 0.0 0.0 0.0 16.28999089631971 0.0 0.0 0.0 34.279985188174585" Properties=species:S:1:pos:R:3:initial_magmoms:R:1 pbc="T T T"
Si       0.46183779      -2.21385987       0.44584574       0.00000000
Si       1.49791437       1.28156688       1.24405564       0.00000000
Si      -2.07440118       1.04702346       0.51029214       0.00000000
Si       1.04832666       0.77056587      -2.01401882       0.00000000
Si      -1.26395739      -0.78558525      -2.28990429       0.00000000
Si      -1.49514507      -2.56469760       1.72342722       0.00000000
Si       0.38586123       2.99369475      -1.69782006       0.00000000
Si      -1.72732644       3.03103143      -0.70263725       0.00000000
Si       1.81446165       3.28585590       0.10746781       0.00000000
Si       3.72589767       0.64971036       0.88661803       0.00000000
