10
Lattice="16.28999089631971 0.0 0.0 0.0 16.28999089631971 0.0 0.0 0.0 34.279985188174585" Properties=species:S:1:pos:R:3:initial_magmoms:R:1 pbc="T T T"
Si      -0.11686446       2.00062377       1.20651903       0.00000000
Si       1.83049101      -1.46655612       0.15347158       0.00000000
Si       0.40032675       0.87807987      -2.19913084       0.00000000
Si      -2.13376194      -0.86335371       0.71257845       0.00000000
Si      -2.53192212      -1.52689428      -1.51414779       0.00000000
Si      -1.46318409       2.30213538      -2.23505628       0.00000000
Si       0.73278936      -3.52253331      -0.28606664       0.00000000
Si      -2.04154425       3.03640713      -0.03037208       0.00000000
Si       1.35964485       3.41428626       0.06609185       0.00000000
Si       2.07554148       2.48943780      -2.02937626       0.00000000
