10
Lattice="16.28999089631971 0.0 0.0 0.0 16.28999089631971 0.0 0.0 0.0 34.279985188174585" Properties=species:S:1:pos:R:3:initial_magmoms:R:1 pbc="T T T"
Si      -1.34987085      -1.36093176       1.39635827       0.00000000
Si       1.37155284       1.35133695       1.39457571       0.00000000
Si       1.27967724      -1.49146353      -1.41025195       0.00000000
Si      -1.30591391       1.38510612      -1.61380662       0.00000000
Si      -2.71527326      -2.70448209       0.01229281       0.00000000
Si      -2.70565370       2.71639008      -0.01340691       0.00000000
Si       2.73051351       2.69174331       0.01246078       0.00000000
Si       2.71267596      -2.71625976       0.04414236       0.00000000
Si      -2.70382139      -0.00589698       2.75754868       0.00000000
Si       0.01016496       2.70917361       2.75737728       0.00000000
