10
Lattice="16.28999089631971 0.0 0.0 0.0 16.28999089631971 0.0 0.0 0.0 34.279985188174585" Properties=species:S:1:pos:R:3:initial_magmoms:R:1 pbc="T T T"
Si      -1.18562530      -1.48934583      -1.39908151       0.00000000
Si       1.30591391      -1.38510612       1.61380662       0.00000000
Si       1.44224492       1.31724198      -1.56839045       0.00000000
Si      -1.39973979       1.33128396       1.60039971       0.00000000
Si       2.79410315       2.58587460       0.06526227       0.00000000
Si       2.58559115      -2.87656965       0.20355467       0.00000000
Si      -2.72197496       2.76684021      -0.05284263       0.00000000
Si      -2.83387097      -2.70231552       0.05722361       0.00000000
Si       2.67746675      -0.03376917       3.00838233       0.00000000
Si      -0.03834503       2.67915114       3.00855373       0.00000000
