10
Lattice="16.28999089631971 0.0 0.0 0.0 16.28999089631971 0.0 0.0 0.0 34.279985188174585" Properties=species:S:1:pos:R:3:initial_magmoms:R:1 pbc="T T T"
Si       1.36052451       1.35241209      -1.37048029       0.00000000
Si      -1.35884664      -1.35974259      -1.37212573       0.00000000
Si       1.33617096      -1.31479848       1.46077383       0.00000000
Si      -1.34464176       1.42014591       1.38909434       0.00000000
Si      -2.71316466      -2.70407484      -0.00887852       0.00000000
Si       2.72877048       2.69394246       0.01151808       0.00000000
Si       2.71189404      -2.71966437       0.02145928       0.00000000
Si      -2.72635956       2.71112841      -0.00627324       0.00000000
Si       0.00102627       2.70998811      -2.73067659       0.00000000
Si      -2.71365336      -0.00462636      -2.73132791       0.00000000
