10
Lattice="16.28999089631971 0.0 0.0 0.0 16.28999089631971 0.0 0.0 0.0 34.279985188174585" Properties=species:S:1:pos:R:3:initial_magmoms:R:1 pbc="T T T"
Si       1.09895598       0.20878893       2.03390122       0.00000000
Si       0.22535586      -2.21628708      -0.75083494       0.00000000
Si      -2.13675930       0.97186140       0.31510180       0.00000000
Si       1.31222466       1.08846522      -1.67937741       0.00000000
Si       2.43398664      -2.22016410      -1.49676783       0.00000000
Si      -1.22585508      -2.27587590      -2.59825293       0.00000000
Si       2.94985836       2.23366851      -0.47560078       0.00000000
Si      -3.29188320       0.65143710      -1.65483293       0.00000000
Si       3.25625697       1.06782579       1.55782052       0.00000000
Si       0.18235026       2.07083367       3.18187000       0.00000000
