10
Lattice="16.28999089631971 0.0 0.0 0.0 16.28999089631971 0.0 0.0 0.0 34.279985188174585" Properties=species:S:1:pos:R:3:initial_magmoms:R:1 pbc="T T T"
Si       0.29760201       2.32914420      -0.26872095       0.00000000
Si       0.57836016      -0.73427175      -2.20468420       0.00000000
Si      -2.29793256      -0.68442435       0.04929465       0.00000000
Si       1.92467979      -1.03578336       1.23689112       0.00000000
Si       3.40118910       0.37787913       0.09646393       0.00000000
Si      -1.89491796      -2.49636105       1.49645931       0.00000000
Si       2.61708624       2.53891053      -0.08384889       0.00000000
Si       2.04154425      -3.03640713       0.03037208       0.00000000
Si       0.51724008       1.27369881      -3.49885720       0.00000000
Si       0.16074972       0.59139216       3.73706895       0.00000000
