10
Lattice="16.28999089631971 0.0 0.0 0.0 16.28999089631971 0.0 0.0 0.0 34.279985188174585" Properties=species:S:1:pos:R:3:initial_magmoms:R:1 pbc="T T T"
Si      -1.35658233      -1.35674523      -1.35789953       0.00000000
Si       1.35837423       1.35806472      -1.35762529       0.00000000
Si      -1.35640314       1.35957969       1.36047053       0.00000000
Si       1.35949824      -1.35757602       1.36019629       0.00000000
Si      -2.71363707       0.00047241      -2.71497634       0.00000000
Si       0.00974142       2.72072322       2.70794894       0.00000000
Si       2.71419093      -2.71479366       0.00034280       0.00000000
Si      -2.71370223       2.71557558      -0.00058276       0.00000000
Si      -2.71467963      -2.71461447      -0.00065132       0.00000000
Si       0.00087966      -2.71430496      -2.71504490       0.00000000
