10
Lattice="16.28999089631971 0.0 0.0 0.0 16.28999089631971 0.0 0.0 0.0 34.279985188174585" Properties=species:S:1:pos:R:3:initial_magmoms:R:1 pbc="T T T"
Si       0.69696765      -0.80659935       2.08216746       0.00000000
Si       0.91660572      -1.86204474      -1.14796879       0.00000000
Si      -2.19726036       0.74028276       0.55201091       0.00000000
Si       1.11001689       1.94272911      -0.86790115       0.00000000
Si      -2.43760302       2.42851713      -1.07742054       0.00000000
Si       3.07390671      -1.00300788      -1.62404949       0.00000000
Si      -0.43766343       3.65247605      -0.74692701       0.00000000
Si      -0.18235026      -2.07083367      -3.18187000       0.00000000
Si       3.01645188      -0.59683302       2.26703953       0.00000000
Si      -2.31910956      -1.09897227      -2.86676820       0.00000000
