10
Lattice="16.28999089631971 0.0 0.0 0.0 16.28999089631971 0.0 0.0 0.0 34.279985188174585" Properties=species:S:1:pos:R:3:initial_magmoms:R:1 pbc="T T T"
Si       1.36540241       1.34355033       1.38406546       0.00000000
Si       1.44500675      -1.37108532      -1.27906923       0.00000000
Si      -1.34633592      -1.37469355       1.38481962       0.00000000
Si      -1.42451163       1.38727269      -1.56887582       0.00000000
Si       0.21361144      -2.93759918      -2.42038907       0.00000000
Si      -2.70668124       2.70329292       0.00878939       0.00000000
Si       2.71527326       2.70448209      -0.01229281       0.00000000
Si      -2.70588303      -2.71777758       0.02851411       0.00000000
Si       0.01145187       2.69858511       2.74525587       0.00000000
Si      -2.70347211      -0.01655064       2.74573579       0.00000000
