10
Lattice="16.28999089631971 0.0 0.0 0.0 16.28999089631971 0.0 0.0 0.0 34.279985188174585" Properties=species:S:1:pos:R:3:initial_magmoms:R:1 pbc="T T T"
Si       1.27171143      -1.41909140      -1.33573065       0.00000000
Si       1.35954711       1.34308403       1.35630551       0.00000000
Si      -1.35734796      -1.36979786       1.35887651       0.00000000
Si      -1.32947577       1.19886866      -1.57217698       0.00000000
Si      -2.09518722      -0.66455489      -3.01465012       0.00000000
Si      -0.27839610      -2.52796799      -2.82000826       0.00000000
Si      -2.70484047       2.68584918      -0.03947685       0.00000000
Si       2.91949447      -0.21982160      -2.44890318       0.00000000
Si       0.00241092       2.70122694       2.71722168       0.00000000
Si       2.70588303       2.71777758      -0.02851411       0.00000000
