10
Lattice="16.28999089631971 0.0 0.0 0.0 16.28999089631971 0.0 0.0 0.0 34.279985188174585" Properties=species:S:1:pos:R:3:initial_magmoms:R:1 pbc="T T T"
Si      -1.35588890       1.35501849      -1.36430989       0.00000000
Si       1.36024610      -1.36039419      -1.36352145       0.00000000
Si       1.36240615       1.34742735       1.38021581       0.00000000
Si      -1.36320311      -1.37774304       1.40308058       0.00000000
Si      -2.71064675       2.70840798      -0.00119980       0.00000000
Si       2.71702554       2.71179630      -0.00325660       0.00000000
Si      -2.71214543      -2.71673217      -0.00335944       0.00000000
Si       0.00177582       2.71210581      -2.72046114       0.00000000
Si       2.71629249      -2.71748151      -0.00380508       0.00000000
Si      -2.71395362      -0.00298107      -2.72066682       0.00000000
