10
Lattice="16.28999089631971 0.0 0.0 0.0 16.28999089631971 0.0 0.0 0.0 34.279985188174585" Properties=species:S:1:pos:R:3:initial_magmoms:R:1 pbc="T T T"
Si       1.11811302      -1.46784337      -1.47366311       0.00000000
Si      -1.31859405      -1.54533490       1.23373736       0.00000000
Si      -1.60076943       1.26324747      -1.43866322       0.00000000
Si       1.71276318       0.60953955       1.75952406       0.00000000
Si       2.47408573       2.42118954       0.19560170       0.00000000
Si       2.47838158      -2.77293301      -0.01398624       0.00000000
Si       2.46923139      -0.10770982      -2.84068112       0.00000000
Si      -2.80365561      -0.31653133       2.51971744       0.00000000
Si      -0.24638625       2.61262962      -2.83862432       0.00000000
Si       3.54767271      -1.08647818       1.36821781       0.00000000
