10
Lattice="16.28999089631971 0.0 0.0 0.0 16.28999089631971 0.0 0.0 0.0 34.279985188174585" Properties=species:S:1:pos:R:3:initial_magmoms:R:1 pbc="T T T"
Si      -1.36240615      -1.34742735      -1.38021581       0.00000000
Si       1.35461939       1.36436895      -1.38347242       0.00000000
Si       1.29651296      -1.42314327       1.43845754       0.00000000
Si      -1.27241027       1.32291090       1.57149824       0.00000000
Si      -2.69376231       2.70159876      -0.00017140       0.00000000
Si       2.70989851      -2.71114470      -0.00620468       0.00000000
Si       2.71314023       2.71640637      -0.02084224       0.00000000
Si      -2.72560926      -2.72517039       0.02286476       0.00000000
Si      -0.00216005      -2.70782154      -2.74373727       0.00000000
Si       2.71142978       0.00710244      -2.74336019       0.00000000
