10
Lattice="16.28999089631971 0.0 0.0 0.0 16.28999089631971 0.0 0.0 0.0 34.279985188174585" Properties=species:S:1:pos:R:3:initial_magmoms:R:1 pbc="T T T"
Si       1.58717772      -1.32727059      -1.19726343       0.00000000
Si      -0.25089858      -0.71464230       2.31225485       0.00000000
Si      -2.03641290      -0.56529721      -1.23517712       0.00000000
Si       0.59800590       2.42296157       0.04946605       0.00000000
Si      -1.51241247       3.26551295       0.78463502       0.00000000
Si       1.99244849      -0.35341481      -3.28786378       0.00000000
Si       1.63555414       0.13515324       3.50992964       0.00000000
Si      -3.17795094       1.69592258       1.47105783       0.00000000
Si      -2.29241025       0.26188130       3.15427460       0.00000000
Si      -2.28819114      -2.97545388      -1.12565250       0.00000000
