10
Lattice="16.28999089631971 0.0 0.0 0.0 16.28999089631971 0.0 0.0 0.0 34.279985188174585" Properties=species:S:1:pos:R:3:initial_magmoms:R:1 pbc="T T T"
Si       1.35713619      -1.35803214       1.36335005       0.00000000
Si      -1.35941679       1.35816246       1.36328149       0.00000000
Si      -1.36099692      -1.35332433      -1.37311643       0.00000000
Si       1.35530388       1.36425492      -1.40760554       0.00000000
Si       2.71108673      -2.71306692       0.00215964       0.00000000
Si      -2.71578735       2.71223613       0.00527912       0.00000000
Si       2.71669863       2.71212210       0.00054848       0.00000000
Si      -2.71588509      -2.71562445       0.00185112       0.00000000
Si       2.71409386      -0.00003258       2.72015262       0.00000000
Si      -0.00055386       2.71466334       2.72001550       0.00000000
