10
Lattice="16.28999089631971 0.0 0.0 0.0 16.28999089631971 0.0 0.0 0.0 34.279985188174585" Properties=species:S:1:pos:R:3:initial_magmoms:R:1 pbc="T T T"
Si       2.11041837      -0.84255138      -0.73516897       0.00000000
Si      -1.66553847      -1.56959037       0.68642281       0.00000000
Si      -0.92580957       0.66398040      -2.11634463       0.00000000
Si       0.18515214       1.83021408       1.65846661       0.00000000
Si       3.34273962       0.36970155       1.00323861       0.00000000
Si       2.29325733       2.57916312       0.86279343       0.00000000
Si       1.51241247      -3.26551295      -0.78463502       0.00000000
Si      -1.83787038       3.02860422       1.38456938       0.00000000
Si      -3.15379287       1.29583692      -1.75890702       0.00000000
Si      -3.56395878      -0.36722547       1.41758102       0.00000000
