10
Lattice="16.28999089631971 0.0 0.0 0.0 16.28999089631971 0.0 0.0 0.0 34.279985188174585" Properties=species:S:1:pos:R:3:initial_magmoms:R:1 pbc="T T T"
Si      -2.22798330       0.63185652       0.35743761       0.00000000
Si       0.35487765       2.19046743      -0.88699511       0.00000000
Si       0.92580957      -0.66398040       2.11634463       0.00000000
Si       0.24379614      -1.22114727      -2.08569830       0.00000000
Si      -1.91143602       2.63614554      -0.77915022       0.00000000
Si       2.24450136      -0.16184115      -2.65598046       0.00000000
Si      -0.73972890      -2.23357077       2.80276744       0.00000000
Si       3.03622794      -1.50653178       1.38117566       0.00000000
Si       1.27663101       2.02654116      -2.98818798       0.00000000
Si      -3.72589767      -0.64971036      -0.88661803       0.00000000
