10
Lattice="16.28999089631971 0.0 0.0 0.0 16.28999089631971 0.0 0.0 0.0 34.279985188174585" Properties=species:S:1:pos:R:3:initial_magmoms:R:1 pbc="T T T"
Si      -1.34555400      -1.35073422      -1.34411897       0.00000000
Si       1.35637056      -1.35407367       1.35800237       0.00000000
Si      -1.35713619       1.36060596       1.35913361       0.00000000
Si       1.37401263       1.34514675      -1.38618396       0.00000000
Si      -0.03241710       2.67211386      -2.72101648       0.00000000
Si      -2.75822280      -0.06820623      -2.63685221       0.00000000
Si      -0.00014661      -2.71248048       2.71501062       0.00000000
Si       2.71578735      -2.71223613      -0.00527912       0.00000000
Si       0.00161271      -2.64637566      -2.78097221       0.00000000
Si      -2.71461447      -2.71508688       0.00030852       0.00000000
