10
Lattice="16.28999089631971 0.0 0.0 0.0 16.28999089631971 0.0 0.0 0.0 34.279985188174585" Properties=species:S:1:pos:R:3:initial_magmoms:R:1 pbc="T T T"
Si      -1.23443991       1.32921513       1.51637599       0.00000000
Si       1.33011675       1.38100104      -1.38378094       0.00000000
Si      -1.37929059      -1.34061813      -1.38124422       0.00000000
Si       1.42135204      -1.37868786       1.57166964       0.00000000
Si       2.69376231      -2.70159876       0.00017140       0.00000000
Si       2.68764542       2.73470004      -0.00647892       0.00000000
Si       2.69016385       0.02099781      -2.74315451       0.00000000
Si      -0.02453274      -2.69400762      -2.74435431       0.00000000
Si      -2.74449033      -2.69477325       0.00880996       0.00000000
Si      -2.72761389       2.71883358      -0.00113124       0.00000000
