10
Lattice="16.28999089631971 0.0 0.0 0.0 16.28999089631971 0.0 0.0 0.0 34.279985188174585" Properties=species:S:1:pos:R:3:initial_magmoms:R:1 pbc="T T T"
Si       0.94185685       2.14721748      -0.10054325       0.00000000
Si       1.59406935      -1.44216999      -1.07066738       0.00000000
Si      -1.52322481       0.51201099      -1.81094407       0.00000000
Si      -0.73149823      -0.83267964       2.22621204       0.00000000
Si       1.08251937       2.32295400      -2.66122530       0.00000000
Si      -3.52393003      -0.54729513      -1.24066192       0.00000000
Si      -0.17453269       3.44272860       1.64290349       0.00000000
Si       0.66294436      -3.60905602      -1.11111778       0.00000000
Si      -3.76772617       0.67385214       0.84503639       0.00000000
Si       0.50082302       0.37957329       3.96461962       0.00000000
