10
Lattice="16.28999089631971 0.0 0.0 0.0 16.28999089631971 0.0 0.0 0.0 34.279985188174585" Properties=species:S:1:pos:R:3:initial_magmoms:R:1 pbc="T T T"
Si      -1.99267425      -0.05258412      -1.17121063       0.00000000
Si       0.50824800      -2.30597982       0.30927420       0.00000000
Si       1.29639078       0.76520646      -1.86078720       0.00000000
Si       0.41102928       1.44498816       1.96571829       0.00000000
Si       1.00585863      -1.25918442      -3.06497519       0.00000000
Si      -1.27677762      -0.97743258      -3.26667873       0.00000000
Si      -2.36327175      -1.82988828       2.18308780       0.00000000
Si      -2.77677711       2.10844728      -1.35152345       0.00000000
Si       1.55461986      -2.97887085      -1.66258021       0.00000000
Si      -3.46918356      -1.46624661      -0.03078344       0.00000000
