10
Lattice="16.28999089631971 0.0 0.0 0.0 16.28999089631971 0.0 0.0 0.0 34.279985188174585" Properties=species:S:1:pos:R:3:initial_magmoms:R:1 pbc="T T T"
Si       1.04637186      -0.67289103      -1.97185441       0.00000000
Si      -0.90070668      -1.99959750       0.84767595       0.00000000
Si      -0.50824800       2.30597982      -0.30927420       0.00000000
Si       1.22298804      -3.09146733       0.88925759       0.00000000
Si      -2.87151975       0.47609154       1.87381360       0.00000000
Si      -1.36645407      -0.95333967       3.09425031       0.00000000
Si       0.49761063       1.04679540      -3.37424939       0.00000000
Si      -2.03007609      -2.62744668      -1.39310510       0.00000000
Si      -2.50092225       2.25339570      -1.48048483       0.00000000
Si       3.40489412      -0.33360291      -1.71382882       0.00000000
