10
Lattice="16.28999089631971 0.0 0.0 0.0 16.28999089631971 0.0 0.0 0.0 34.279985188174585" Properties=species:S:1:pos:R:3:initial_magmoms:R:1 pbc="T T T"
Si       1.91016281       1.23261936      -0.67061973       0.00000000
Si      -0.36359280      -1.72670742      -1.60821212       0.00000000
Si      -1.57563396       1.76855710       0.35274124       0.00000000
Si       0.60196437      -1.05595038       2.13972359       0.00000000
Si       0.97669953       1.09182000       3.10415723       0.00000000
Si      -0.74661957       2.72281553       2.43247483       0.00000000
Si      -3.70353150       0.91184319       0.03287452       0.00000000
Si      -2.62210356      -1.68412536      -2.21212296       0.00000000
Si       0.51789168      -3.77067888      -0.72025717       0.00000000
Si       2.39862661       2.96048663       0.90612335       0.00000000
