10
Lattice="16.28999089631971 0.0 0.0 0.0 16.28999089631971 0.0 0.0 0.0 34.279985188174585" Properties=species:S:1:pos:R:3:initial_magmoms:R:1 pbc="T T T"
Si       0.90922635       1.45777581      -1.59491148       0.00000000
Si       1.05832872      -1.69233552       1.31340409       0.00000000
Si      -1.54664753      -1.08600543      -1.53903508       0.00000000
Si      -0.54423261       1.55720997       1.84522407       0.00000000
Si      -1.07121574      -2.44151262       1.95546857       0.00000000
Si      -3.37104350      -0.60360966      -0.16317282       0.00000000
Si       2.80512171       1.95409953      -0.34314284       0.00000000
Si      -2.93080625      -1.00336626       2.17201536       0.00000000
Si      -0.33519933       3.71252358       0.78532062       0.00000000
Si       0.92750373       0.34209000      -3.73336671       0.00000000
