10
Lattice="16.28999089631971 0.0 0.0 0.0 16.28999089631971 0.0 0.0 0.0 34.279985188174585" Properties=species:S:1:pos:R:3:initial_magmoms:R:1 pbc="T T T"
Si      -1.36921522      -1.34400645       1.38285880       0.00000000
Si       1.34239374       1.37231847       1.38512128       0.00000000
Si      -1.38820936       1.37026593      -1.36406993       0.00000000
Si       1.46323296      -1.43728299      -1.56043265       0.00000000
Si       0.00386073       2.60043786      -2.78821013       0.00000000
Si       2.70555723      -2.71652040       0.00057248       0.00000000
Si      -2.73060998      -2.69187363      -0.02529522       0.00000000
Si       2.71067229       2.72852613       0.01417821       0.00000000
Si      -0.01479132      -2.69909010       2.74548898       0.00000000
Si       2.70019782       0.01573614       2.74518046       0.00000000
