10
Lattice="16.28999089631971 0.0 0.0 0.0 16.28999089631971 0.0 0.0 0.0 34.279985188174585" Properties=species:S:1:pos:R:3:initial_magmoms:R:1 pbc="T T T"
Si      -1.35852084      -1.35203742      -1.36263017       0.00000000
Si       1.35754344       1.36620972      -1.36458413       0.00000000
Si      -1.43648478       1.25229375       1.40661142       0.00000000
Si       1.35395964      -1.34421822       1.42159178       0.00000000
Si       2.71353933      -2.69399133      -0.00085700       0.00000000
Si       2.70034443       2.72121192       0.00174828       0.00000000
Si      -2.71314023      -2.71640637       0.02084224       0.00000000
Si      -0.00171045      -2.70930393      -2.72251795       0.00000000
Si       2.71305063       0.00545715      -2.72330639       0.00000000
Si      -2.71925712       2.71989243       0.01419192       0.00000000
