10
Lattice="16.28999089631971 0.0 0.0 0.0 16.28999089631971 0.0 0.0 0.0 34.279985188174585" Properties=species:S:1:pos:R:3:initial_magmoms:R:1 pbc="T T T"
Si      -1.35430740       1.35470898      -1.36047053       0.00000000
Si       1.36004710      -1.36000323      -1.35937357       0.00000000
Si       1.35752866       1.35369900       1.37730201       0.00000000
Si      -1.33011675      -1.38100104       1.38378094       0.00000000
Si       2.64030100      -0.11389968       2.76972151       0.00000000
Si      -2.71520658       2.71337643      -0.00020568       0.00000000
Si      -2.71209519      -0.00280188      -2.71672462       0.00000000
Si       0.00316266       2.71200807      -2.71723882       0.00000000
Si       2.72080618       2.70907587       0.00095984       0.00000000
Si      -2.70940734      -2.72161917       0.00253672       0.00000000
