10
Lattice="16.28999089631971 0.0 0.0 0.0 16.28999089631971 0.0 0.0 0.0 34.279985188174585" Properties=species:S:1:pos:R:3:initial_magmoms:R:1 pbc="T T T"
Si      -1.98069200       0.00889434      -1.21046123       0.00000000
Si       0.21095550       2.32490880      -0.06883425       0.00000000
Si      -0.19712529      -0.83880468       2.17756872       0.00000000
Si       1.86217506      -1.35824391      -0.46343138       0.00000000
Si      -1.94425127      -2.29122108      -1.57598892       0.00000000
Si       3.14928054      -0.44323461       1.26911432       0.00000000
Si      -1.66213060      -2.60667693       1.73844186       0.00000000
Si       1.16497935       2.99621970       1.94844117       0.00000000
Si      -3.75249014       0.39894210       0.30423504       0.00000000
Si       1.16607078       3.03277446      -2.10633487       0.00000000
