10
Lattice="16.28999089631971 0.0 0.0 0.0 16.28999089631971 0.0 0.0 0.0 34.279985188174585" Properties=species:S:1:pos:R:3:initial_magmoms:R:1 pbc="T T T"
Si      -1.24449898       1.90563678      -0.65022312       0.00000000
Si      -0.73334322      -2.04970554      -1.08009438       0.00000000
Si       2.20822353       1.08142794      -0.48807870       0.00000000
Si      -0.58319829      -0.54367875       2.45167163       0.00000000
Si       1.21059135       0.96008373       2.90457905       0.00000000
Si      -1.04598090       3.21618357       1.64190937       0.00000000
Si      -3.35009456       1.35508365      -1.53632695       0.00000000
Si      -0.07125246       3.30413328      -2.15333275       0.00000000
Si      -0.22853241      -2.05143228      -3.37627191       0.00000000
Si       2.03111865       2.33688195      -2.51673508       0.00000000
