10
Lattice="16.28999089631971 0.0 0.0 0.0 16.28999089631971 0.0 0.0 0.0 34.279985188174585" Properties=species:S:1:pos:R:3:initial_magmoms:R:1 pbc="T T T"
Si      -1.17432981       1.72869480       1.11173482       0.00000000
Si       1.84943628      -1.05342543       1.06322861       0.00000000
Si      -1.79378964      -1.50376248      -0.45290742       0.00000000
Si      -1.21059135      -0.96008373      -2.90457905       0.00000000
Si       0.28504242      -2.30902605       2.33951230       0.00000000
Si       1.30049586       2.29604292      -2.16402811       0.00000000
Si      -2.25657225       2.25609984      -1.26266968       0.00000000
Si       0.99763218       0.12134421      -3.39265775       0.00000000
Si      -2.56639990       0.49852287       2.53587502       0.00000000
Si      -1.06681581      -3.57765867       0.70585957       0.00000000
