10
Lattice="16.28999089631971 0.0 0.0 0.0 16.28999089631971 0.0 0.0 0.0 34.279985188174585" Properties=species:S:1:pos:R:3:initial_magmoms:R:1 pbc="T T T"
Si       1.36231152       1.34066454      -1.34175708       0.00000000
Si      -1.35776158       1.35560386       1.35803665       0.00000000
Si       1.35569778      -1.35790182       1.35807093       0.00000000
Si      -1.36066711      -1.36490652      -1.36150579       0.00000000
Si       0.07593421       2.71626206      -2.66676837       0.00000000
Si      -2.71540846       2.71265382      -0.00287952       0.00000000
Si      -0.00086500       2.71403033       2.71480494       0.00000000
Si       2.71457700      -0.00115659       2.71507918       0.00000000
Si       2.71483764       2.71494420       0.00294808       0.00000000
Si      -2.71565281      -0.00131949       2.71470210       0.00000000
