10
Lattice="16.28999089631971 0.0 0.0 0.0 16.28999089631971 0.0 0.0 0.0 34.279985188174585" Properties=species:S:1:pos:R:3:initial_magmoms:R:1 pbc="T T T"
Si       1.35538761      -1.35259128      -1.35868797       0.00000000
Si      -1.35111837      -1.36013355       1.36701801       0.00000000
Si      -1.36061544       1.36061315      -1.35789953       0.00000000
Si       1.36349188       1.36219979       1.38580346       0.00000000
Si      -2.46923139       0.10770982       2.84068112       0.00000000
Si      -0.00154897      -2.71088406      -2.71555910       0.00000000
Si       2.71308091       0.00410399      -2.71607330       0.00000000
Si      -2.71991820      -2.70951570       0.00147404       0.00000000
Si       2.71609456      -2.71381626       0.00263956       0.00000000
Si      -2.71677423       0.00417470      -2.71521630       0.00000000
