10
Lattice="16.28999089631971 0.0 0.0 0.0 16.28999089631971 0.0 0.0 0.0 34.279985188174585" Properties=species:S:1:pos:R:3:initial_magmoms:R:1 pbc="T T T"
Si       0.95402385       0.67131090       2.01727542       0.00000000
Si      -0.21095550      -2.32490880       0.06883425       0.00000000
Si       0.95511528       0.70786566      -2.03750062       0.00000000
Si      -2.03707004       1.19237913       0.21137051       0.00000000
Si       2.99385765      -0.41260941       1.51651311       0.00000000
Si      -2.19164750      -2.31601446      -1.14162698       0.00000000
Si       0.67917897       3.04945542      -1.93630605       0.00000000
Si      -1.44087982       3.33276477       1.14385519       0.00000000
Si       0.55824201       3.00887703       2.35651034       0.00000000
Si      -0.40808079      -3.16371348       2.24640296       0.00000000
