10
Lattice="16.28999089631971 0.0 0.0 0.0 16.28999089631971 0.0 0.0 0.0 34.279985188174585" Properties=species:S:1:pos:R:3:initial_magmoms:R:1 pbc="T T T"
Si      -0.78719796       1.78012233       1.28354620       0.00000000
Si      -1.76499706      -1.52956584      -0.20252627       0.00000000
Si       0.50430582       0.96208740      -2.08305874       0.00000000
Si       2.06495298      -0.64803249       0.92422320       0.00000000
Si      -0.85779882      -2.87293698      -1.85393120       0.00000000
Si       2.54413962      -0.12183291      -2.58382105       0.00000000
Si       0.09684405       1.30653945       3.39365187       0.00000000
Si       1.82428452      -2.94700761       1.21882555       0.00000000
Si      -3.67955981      -0.12939147      -0.23289835       0.00000000
Si       0.10852398       3.29965353      -1.74382382       0.00000000
