10
Lattice="10.86 0.0 0.0 0.0 10.86 0.0 0.0 0.0 10.86" Properties=species:S:1:pos:R:3:initial_magmoms:R:1 pbc="T T T"
Si       0.58456122       1.65006840      -1.55331666       0.00000000
Si       0.42479976      -0.83197374      -2.15147460       0.00000000
Si      -2.29020024      -0.83197374       0.56352540       0.00000000
Si       1.80390030       0.31748124       1.95204156       0.00000000
Si       1.78229976      -2.18947374      -0.79397460       0.00000000
Si      -0.93270024      -2.18947374       1.92102540       0.00000000
Si       3.13979976      -0.83197374       0.56352540       0.00000000
Si       0.42479976      -0.83197374       3.27852540       0.00000000
Si       0.42479976      -3.54697374       0.56352540       0.00000000
Si      -2.29020024       1.88302626      -2.15147460       0.00000000
