10
Lattice="10.86 0.0 0.0 0.0 10.86 0.0 0.0 0.0 10.86" Properties=species:S:1:pos:R:3:initial_magmoms:R:1 pbc="T T T"
Si      -2.25455772       0.15584100       0.62791434       0.00000000
Si       1.46013786       1.63908894      -0.90808062       0.00000000
Si       1.71175320      -0.92892096       1.45989894       0.00000000
Si      -2.41431918      -2.32620114       0.02975640       0.00000000
Si       0.30068082      -2.32620114      -2.68524360       0.00000000
Si       0.30068082      -2.32620114       2.74475640       0.00000000
Si      -2.32251960       2.75760378       0.41749098       0.00000000
Si      -2.41431918       0.38879886      -2.68524360       0.00000000
Si       3.01568082      -2.32620114       0.02975640       0.00000000
Si      -2.83911894      -1.49422740       2.18123100       0.00000000
