10
Lattice="10.86 0.0 0.0 0.0 10.86 0.0 0.0 0.0 10.86" Properties=species:S:1:pos:R:3:initial_magmoms:R:1 pbc="T T T"
Si      -1.12235928       1.12553040      -1.28404296       0.00000000
Si      -1.12235928      -1.58946960       1.43095704       0.00000000
Si       1.59264072       1.12553040       1.43095704       0.00000000
Si       1.66225332      -1.51712028      -1.42506006       0.00000000
Si      -2.47985928       2.48303040       0.07345704       0.00000000
Si      -2.47985928      -0.23196960      -2.64154296       0.00000000
Si       0.23514072       2.48303040      -2.64154296       0.00000000
Si      -2.47985928      -0.23196960       2.78845704       0.00000000
Si       0.23514072       2.48303040       2.78845704       0.00000000
Si      -2.47985928      -2.94696960       0.07345704       0.00000000
