10
Lattice="10.86 0.0 0.0 0.0 10.86 0.0 0.0 0.0 10.86" Properties=species:S:1:pos:R:3:initial_magmoms:R:1 pbc="T T T"
Si      -1.34956134      -1.31511342       1.18164402       0.00000000
Si       1.36543866       1.39988658       1.18164402       0.00000000
Si      -1.34956134       1.39988658      -1.53335598       0.00000000
Si       2.65751802      -2.51176596      -0.35129928       0.00000000
Si       0.00793866      -2.67261342       2.53914402       0.00000000
Si      -2.70706134       0.04238658       2.53914402       0.00000000
Si       2.72293866       0.04238658       2.53914402       0.00000000
Si       0.00793866       2.75738658       2.53914402       0.00000000
Si      -2.70706134       2.75738658      -0.17585598       0.00000000
Si       2.72293866       2.75738658      -0.17585598       0.00000000
