10
Lattice="16.28999089631971 0.0 0.0 0.0 16.28999089631971 0.0 0.0 0.0 34.46413024517268" Properties=species:S:1:pos:R:3:initial_magmoms:R:1 pbc="T T T"
Si      -1.58149836       0.33712155      -1.75029630       0.00000000
Si       1.80625149      -1.08716202      -1.34148256       0.00000000
Si       1.04832666       1.64110347       1.56601101       0.00000000
Si      -1.57550690      -1.18470654       1.58782337       0.00000000
Si      -0.60393546       2.76232788      -2.12771320       0.00000000
Si       2.61658125      -2.64458376       0.27512731       0.00000000
Si      -2.71047355       2.37519603      -1.38180561       0.00000000
Si      -2.50006051      -3.04794045       0.12955074       0.00000000
Si       2.41417800       0.29203083       3.12783322       0.00000000
Si      -0.29224260      -2.42012385       3.15113443       0.00000000
