10
Lattice="16.28999089631971 0.0 0.0 0.0 16.28999089631971 0.0 0.0 0.0 34.46413024517268" Properties=species:S:1:pos:R:3:initial_magmoms:R:1 pbc="T T T"
Si      -1.35681039       1.31859405      -1.39604964       0.00000000
Si       1.34197020       1.36726857       1.36694467       0.00000000
Si      -1.37171574      -1.34784112       1.36646217       0.00000000
Si       1.40322060      -1.35614250      -1.44524377       0.00000000
Si       2.69549001      -2.71388240      -0.00142682       0.00000000
Si       2.70076797       2.72215674      -0.02843292       0.00000000
Si       2.69741223       0.00884547       2.72703787       0.00000000
Si      -0.01681128      -2.70608700       2.72672769       0.00000000
Si      -2.73214251      -2.71815659      -0.01400623       0.00000000
Si      -0.01712079       2.72534958       2.72752036       0.00000000
