10
Lattice="16.28999089631971 0.0 0.0 0.0 16.28999089631971 0.0 0.0 0.0 34.46413024517268" Properties=species:S:1:pos:R:3:initial_magmoms:R:1 pbc="T T T"
Si      -1.35728280      -1.35595126      -1.35699142       0.00000000
Si      -1.35666378       1.35700750       1.35799088       0.00000000
Si       1.35736425      -1.35348407       1.36160962       0.00000000
Si       1.35793440       1.35912520      -1.35685357       0.00000000
Si      -2.70307952      -0.01072859       2.71508570       0.00000000
Si       0.00086337      -2.71343086      -2.71501677       0.00000000
Si      -2.71400848       0.00149542      -2.71484445       0.00000000
Si      -2.71460470      -2.71509244      -0.00034464       0.00000000
Si       2.71476108       2.71583785      -0.00044803       0.00000000
Si       0.00118917       2.71596817      -2.71474106       0.00000000
