10
Lattice="16.28999089631971 0.0 0.0 0.0 16.28999089631971 0.0 0.0 0.0 34.46413024517268" Properties=species:S:1:pos:R:3:initial_magmoms:R:1 pbc="T T T"
Si       1.71631440      -0.46952667       1.59093407       0.00000000
Si      -1.83207114      -1.51885028      -0.28539762       0.00000000
Si      -1.03128569       2.13604254       0.42570117       0.00000000
Si       1.38269520       0.06077799      -2.08508105       0.00000000
Si      -1.80233212       1.81472229       2.63109657       0.00000000
Si       2.11225914       2.36470527      -1.84714056       0.00000000
Si       2.34395181       1.70036649       2.28321544       0.00000000
Si      -3.29909057      -0.43807068      -1.74860755       0.00000000
Si       3.35591919      -1.67268978       0.41570657       0.00000000
Si      -2.51130617      -2.09647087       2.00657171       0.00000000
