10
Lattice="16.28999089631971 0.0 0.0 0.0 16.28999089631971 0.0 0.0 0.0 34.46413024517268" Properties=species:S:1:pos:R:3:initial_magmoms:R:1 pbc="T T T"
Si      -1.63988172       1.26255906      -1.20590059       0.00000000
Si       1.35306369       1.22917433       1.56601446       0.00000000
Si       1.71610263      -0.58720044      -1.70828450       0.00000000
Si      -1.44384786      -1.47526608       1.43418564       0.00000000
Si       2.93754312       2.24813012       0.09033054       0.00000000
Si      -0.38499786       2.84831888      -2.54359209       0.00000000
Si      -3.09610998      -0.35404167      -2.25953857       0.00000000
Si      -2.87767737       2.56099586       0.29466848       0.00000000
Si       1.46645838      -2.91298890      -2.14997704       0.00000000
Si      -0.05015691       2.58531683       3.01125823       0.00000000
