10
Lattice="16.28999089631971 0.0 0.0 0.0 16.28999089631971 0.0 0.0 0.0 34.46413024517268" Properties=species:S:1:pos:R:3:initial_magmoms:R:1 pbc="T T T"
Si      -1.35682668      -1.35671265      -1.35640553       0.00000000
Si      -1.35602847       1.35630540       1.35933498       0.00000000
Si       1.35861858       1.35821133      -1.35664678       0.00000000
Si       1.35664749      -1.35420399       1.36374640       0.00000000
Si      -2.69829189       0.00283446       2.72835440       0.00000000
Si      -2.71357191       0.00013032      -2.71429302       0.00000000
Si      -2.71244790       2.71619460       0.00013786       0.00000000
Si       0.00104256      -2.71458352      -2.71463766       0.00000000
Si       0.00130320       2.71555929      -2.71443088       0.00000000
Si      -2.71476108      -2.71583785       0.00044803       0.00000000
