10
Lattice="16.28999089631971 0.0 0.0 0.0 16.28999089631971 0.0 0.0 0.0 34.46413024517268" Properties=species:S:1:pos:R:3:initial_magmoms:R:1 pbc="T T T"
Si       0.82008747       0.28499355       2.16941482       0.00000000
Si      -1.59355296      -1.77759738       0.19251674       0.00000000
Si       1.73433114      -1.02208347      -1.30788001       0.00000000
Si      -0.99812088       2.18013957      -0.66832879       0.00000000
Si       0.19126089      -1.87879086      -3.03653282       0.00000000
Si       2.70370017      -2.41189740       0.42614921       0.00000000
Si       1.78654059      -1.84389768       2.62496195       0.00000000
Si       0.93333555       3.57619257      -0.62500735       0.00000000
Si       2.03558211       2.22959601      -2.25150842       0.00000000
Si      -3.72446415      -0.85388922       0.04152930       0.00000000
