10
Lattice="16.28999089631971 0.0 0.0 0.0 16.28999089631971 0.0 0.0 0.0 34.46413024517268" Properties=species:S:1:pos:R:3:initial_magmoms:R:1 pbc="T T T"
Si       2.01315078       0.83667069      -0.92818847       0.00000000
Si      -1.68327828       1.32014160      -1.11553559       0.00000000
Si      -0.72956394      -2.30392728      -0.23794049       0.00000000
Si       0.22833693       0.93786417       2.30086109       0.00000000
Si      -1.90257426       1.86157233       2.14987365       0.00000000
Si      -2.11225914      -2.36470527       1.84714056       0.00000000
Si       2.49061068      -0.75186495      -2.64639865       0.00000000
Si      -1.96074585       3.23102376       0.18193625       0.00000000
Si       1.26413658      -3.59840887      -0.04190841       0.00000000
Si      -3.14354483      -0.22866273       2.27284173       0.00000000
