10
Lattice="16.28999089631971 0.0 0.0 0.0 16.28999089631971 0.0 0.0 0.0 34.46413024517268" Properties=species:S:1:pos:R:3:initial_magmoms:R:1 pbc="T T T"
Si      -2.18952261      -0.01923849       0.89220790       0.00000000
Si       0.03668508       2.34315360      -0.38461991       0.00000000
Si       1.52679654      -1.02512970       1.50256799       0.00000000
Si      -0.17801712      -1.81289781      -1.61692004       0.00000000
Si      -1.80677277       2.32847631      -1.85992676       0.00000000
Si      -1.38287439      -3.27991005      -0.05831334       0.00000000
Si      -1.82558772      -2.30420421       2.15911004       0.00000000
Si       3.33907533       0.51720750       1.51066707       0.00000000
Si       2.10836583      -2.58791085      -1.61492112       0.00000000
Si       0.18256203      -1.51972668       3.38458627       0.00000000
