10
Lattice="16.28999089631971 0.0 0.0 0.0 16.28999089631971 0.0 0.0 0.0 34.46413024517268" Properties=species:S:1:pos:R:3:initial_magmoms:R:1 pbc="T T T"
Si      -1.35495333       1.35184194       1.35716374       0.00000000
Si       1.35824391       1.35593073      -1.35647446       0.00000000
Si      -1.35610992      -1.35835794      -1.35637107       0.00000000
Si       1.35777150      -1.35601218       1.36029998       0.00000000
Si      -2.68833870       0.00107514       2.72445995       0.00000000
Si       2.70782154      -0.00079821       2.70805501       0.00000000
Si       2.71319724       2.71327869       0.00124071       0.00000000
Si       0.00000000       2.71441899      -2.71315571       0.00000000
Si      -2.71290402       2.71551042       0.00110285       0.00000000
Si      -2.71327869      -2.71518462       0.00099946       0.00000000
