10
Lattice="16.28999089631971 0.0 0.0 0.0 16.28999089631971 0.0 0.0 0.0 34.46413024517268" Properties=species:S:1:pos:R:3:initial_magmoms:R:1 pbc="T T T"
Si       1.36886499       1.34715042       1.38336684       0.00000000
Si      -1.34866539      -1.36728486       1.38529683       0.00000000
Si       1.34425080      -1.39683492      -1.40159837       0.00000000
Si      -1.36585134       1.34907264      -1.56182220       0.00000000
Si      -2.70430290       2.69149896       0.00124416       0.00000000
Si      -2.70642060      -2.71215468       0.02330121       0.00000000
Si       2.72332962       2.69577315       0.01382357       0.00000000
Si       0.01102833       2.70356854       2.74197807       0.00000000
Si      -2.70345582      -0.01119123       2.74239164       0.00000000
Si       2.72591973      -2.72100015       0.00999116       0.00000000
