10
Lattice="16.28999089631971 0.0 0.0 0.0 16.28999089631971 0.0 0.0 0.0 34.46413024517268" Properties=species:S:1:pos:R:3:initial_magmoms:R:1 pbc="T T T"
Si       0.81032976      -1.55742174       1.61660986       0.00000000
Si      -0.48153240      -1.52880021      -1.88153578       0.00000000
Si      -1.80625149       1.08716202       1.34148256       0.00000000
Si       2.15238141       1.29054267      -0.67666911       0.00000000
Si      -0.36834948       0.35455185      -3.38648179       0.00000000
Si       2.24194383      -2.72148885       0.04973177       0.00000000
Si       1.95217731      -0.01764207       3.06771740       0.00000000
Si      -3.38774985       1.42428357      -0.40881374       0.00000000
Si       1.94901705       0.96760971      -3.11890214       0.00000000
Si       1.61145567      -2.67540444      -2.24389185       0.00000000
