10
Lattice="16.28999089631971 0.0 0.0 0.0 16.28999089631971 0.0 0.0 0.0 34.46413024517268" Properties=species:S:1:pos:R:3:initial_magmoms:R:1 pbc="T T T"
Si      -1.35539316      -1.35603886       1.35726714       0.00000000
Si      -1.35189081       1.35855836      -1.35847338       0.00000000
Si       1.35855342      -1.35240619      -1.36043784       0.00000000
Si       1.35944937       1.35853393       1.35688803       0.00000000
Si      -2.71298547       0.00117607       2.71443088       0.00000000
Si       0.00239463      -2.71390810       2.71446534       0.00000000
Si      -2.71406061       2.71469272      -0.00031018       0.00000000
Si      -2.71334385      -2.71576516      -0.00037911       0.00000000
Si       0.00229689       2.71633801       2.71449981       0.00000000
Si       2.71704168      -2.71442938      -0.00051696       0.00000000
