10
Lattice="16.28999089631971 0.0 0.0 0.0 16.28999089631971 0.0 0.0 0.0 34.46413024517268" Properties=species:S:1:pos:R:3:initial_magmoms:R:1 pbc="T T T"
Si       1.35754344       1.35681039       1.35719821       0.00000000
Si      -1.35697329      -1.35739194       1.35733606       0.00000000
Si      -1.35723393       1.35700587      -1.35771517       0.00000000
Si       1.35715248      -1.35780408      -1.35761178       0.00000000
Si       0.00148239       2.71179630       2.71698123       0.00000000
Si       2.71482624      -0.00107514      -2.71398285       0.00000000
Si       2.71502172       2.71454931      -0.00013786       0.00000000
Si       2.71495656      -2.71510325      -0.00013786       0.00000000
Si      -2.71518462       2.71513575       0.00034464       0.00000000
Si      -2.71528236      -2.71516194      -0.00006893       0.00000000
