10
Lattice="16.28999089631971 0.0 0.0 0.0 16.28999089631971 0.0 0.0 0.0 34.46413024517268" Properties=species:S:1:pos:R:3:initial_magmoms:R:1 pbc="T T T"
Si      -1.37068947       1.23562745       1.40089875       0.00000000
Si       1.33654563       1.37194217      -1.34799628       0.00000000
Si      -1.37645613      -1.34396658      -1.34630754       0.00000000
Si       1.26962631      -1.43615151       1.38514863       0.00000000
Si      -2.26613448      -0.77075320       2.68520528       0.00000000
Si       0.25163163       2.50030160       2.66452679       0.00000000
Si      -0.40744548      -2.46079251       2.76905656       0.00000000
Si       2.69397504       0.01504707      -2.70750359       0.00000000
Si       2.69107542      -2.71841886       0.01885189       0.00000000
Si      -0.02083491      -2.70232434      -2.70781376       0.00000000
