10
Lattice="16.28999089631971 0.0 0.0 0.0 16.28999089631971 0.0 0.0 0.0 34.46413024517268" Properties=species:S:1:pos:R:3:initial_magmoms:R:1 pbc="T T T"
Si       1.37645613       1.34396658       1.34630754       0.00000000
Si       1.35562122      -1.35835776      -1.36150623       0.00000000
Si      -1.35887922       1.35827245      -1.36092034       0.00000000
Si      -1.37217186      -1.38290679       1.37088047       0.00000000
Si       0.00576666       2.57959403       2.74720629       0.00000000
Si       2.64608244      -0.09218493       2.73145617       0.00000000
Si      -2.71445157      -2.71033002      -0.00423909       0.00000000
Si       2.71288773      -2.71461429      -0.00613462       0.00000000
Si       2.71300176       2.71590875      -0.00168874       0.00000000
Si       2.71305063       0.00056115      -2.71839426       0.00000000
