10
Lattice="16.28999089631971 0.0 0.0 0.0 16.28999089631971 0.0 0.0 0.0 34.46413024517268" Properties=species:S:1:pos:R:3:initial_magmoms:R:1 pbc="T T T"
Si       1.37068947      -1.23562745      -1.40089875       0.00000000
Si       1.62232110       1.26467415       1.26362804       0.00000000
Si      -1.36417347       1.50257331      -1.35967963       0.00000000
Si      -0.89544501      -2.00638066       1.28430653       0.00000000
Si       2.64031578      -2.67177896      -0.01575012       0.00000000
Si      -0.00576666      -2.57959403      -2.74720629       0.00000000
Si       2.70723510       0.13631472      -2.74889503       0.00000000
Si      -2.72482830       0.13879080      -2.74472487       0.00000000
Si       0.75717549      -0.58912785       3.81390618       0.00000000
Si      -0.00619020       2.84786667      -2.74848146       0.00000000
