10
Lattice="16.28999089631971 0.0 0.0 0.0 16.28999089631971 0.0 0.0 0.0 34.46413024517268" Properties=species:S:1:pos:R:3:initial_magmoms:R:1 pbc="T T T"
Si      -0.98534952      -1.57012468       1.51783561       0.00000000
Si       2.26747026      -0.77401935      -0.02722668       0.00000000
Si       0.23680773       2.23860438       0.85443519       0.00000000
Si      -0.98518662      -0.41759415      -2.40421907       0.00000000
Si       0.68986521      -2.10201273      -2.54431584       0.00000000
Si       2.24821548      -2.70550510       1.28720152       0.00000000
Si      -3.04512228      -2.10235482       0.58278877       0.00000000
Si       2.83240746      -0.92745486      -2.27087728       0.00000000
Si      -0.73256130       3.62841831      -0.87959402       0.00000000
Si       2.63381607       2.67066405       0.76765447       0.00000000
