10
Lattice="16.28999089631971 0.0 0.0 0.0 16.28999089631971 0.0 0.0 0.0 34.46413024517268" Properties=species:S:1:pos:R:3:initial_magmoms:R:1 pbc="T T T"
Si      -0.69631605      -0.77540237      -2.12330179       0.00000000
Si       1.57692087       1.74732893      -0.45471999       0.00000000
Si       1.07541693      -2.03265873       0.72023180       0.00000000
Si      -1.77855849       1.05653519       1.27048641       0.00000000
Si       1.05213852       2.98338155       1.46910330       0.00000000
Si       2.70858717      -2.26661571      -1.05532672       0.00000000
Si      -0.67706127       1.15608338      -3.43772998       0.00000000
Si       1.07395083      -2.20075524      -2.78928701       0.00000000
Si      -1.74436578      -0.02760666       3.36897401       0.00000000
Si       0.99802314       2.63839193      -2.59377189       0.00000000
