10
Lattice="16.28999089631971 0.0 0.0 0.0 16.28999089631971 0.0 0.0 0.0 34.46413024517268" Properties=species:S:1:pos:R:3:initial_magmoms:R:1 pbc="T T T"
Si      -0.04250061      -0.58580469       2.24340935       0.00000000
Si       1.54803870       1.76228478      -0.37648637       0.00000000
Si       0.94726350      -1.72425740      -1.36367747       0.00000000
Si      -2.28638295       0.77501304      -0.00199892       0.00000000
Si       1.50514713       1.56664188      -2.73617776       0.00000000
Si      -0.58156929       1.56278115       3.11748911       0.00000000
Si      -1.79794359      -2.19702415       2.26643140       0.00000000
Si       0.91307079      -0.64011555      -3.46216507       0.00000000
Si      -2.10836583       2.58791085       1.61492112       0.00000000
Si       2.04294519      -1.36468660       2.94823567       0.00000000
