10
Lattice="16.28999089631971 0.0 0.0 0.0 16.28999089631971 0.0 0.0 0.0 34.46413024517268" Properties=species:S:1:pos:R:3:initial_magmoms:R:1 pbc="T T T"
Si       1.35005004       1.35521397       1.34775503       0.00000000
Si      -1.35777150       1.35601218      -1.36029998       0.00000000
Si       1.35752715      -1.35953082      -1.35950731       0.00000000
Si      -1.35193968      -1.37015190       1.37829027       0.00000000
Si      -2.71272483       2.70785412      -0.00313624       0.00000000
Si       2.71345788       2.71200807       0.00024125       0.00000000
Si       0.00047241       2.71194291      -2.71677444       0.00000000
Si      -2.71388142      -0.00234576      -2.71667105       0.00000000
Si       2.71485882      -0.00203625      -2.71670551       0.00000000
Si       0.00001629      -2.71715571      -2.71608516       0.00000000
