10
Lattice="16.28999089631971 0.0 0.0 0.0 16.28999089631971 0.0 0.0 0.0 34.46413024517268" Properties=species:S:1:pos:R:3:initial_magmoms:R:1 pbc="T T T"
Si       1.35712760       1.35674523       1.35588857       0.00000000
Si      -1.35744682      -1.35806472       1.35547500       0.00000000
Si       1.35485515      -1.35829278      -1.36202319       0.00000000
Si      -1.36005322       1.35917244      -1.35750838       0.00000000
Si      -2.71417576       2.71305063      -0.00079268       0.00000000
Si       0.00003828       2.71406061       2.71353481       0.00000000
Si      -2.71492510      -0.00115659       2.71312124       0.00000000
Si       2.71481602      -0.00125433       2.71336249       0.00000000
Si       2.71481602       2.71340901      -0.00224017       0.00000000
Si       0.00016945      -2.71580364       2.71329356       0.00000000
