10
Lattice="16.28999089631971 0.0 0.0 0.0 16.28999089631971 0.0 0.0 0.0 34.46413024517268" Properties=species:S:1:pos:R:3:initial_magmoms:R:1 pbc="T T T"
Si      -0.40151592      -0.04245174       2.29165916       0.00000000
Si      -1.95383889      -0.63521226      -1.25463290       0.00000000
Si       0.67171815       1.97416881      -1.25714878       0.00000000
Si       1.84490766      -1.68212169      -0.05004195       0.00000000
Si      -0.68888781      -1.99585080      -2.70105879       0.00000000
Si       2.04921684       0.72658287      -2.69592363       0.00000000
Si       0.61028856      -3.32941536      -1.26438625       0.00000000
Si       2.03952429       2.29961043       1.99295837       0.00000000
Si       3.44885364      -0.63550548      -1.39745233       0.00000000
Si      -1.82260665      -1.70100180       2.96178008       0.00000000
