10
Lattice="16.28999089631971 0.0 0.0 0.0 16.28999089631971 0.0 0.0 0.0 34.46413024517268" Properties=species:S:1:pos:R:3:initial_magmoms:R:1 pbc="T T T"
Si       1.42109073       1.65855006      -0.67012092       0.00000000
Si      -1.10224656       1.34659656       1.62650107       0.00000000
Si      -2.21972427       0.33513417      -0.93732147       0.00000000
Si       2.55145383      -0.23291442       0.55001336       0.00000000
Si       1.46870640      -2.20996656      -0.36173571       0.00000000
Si      -0.30125097      -3.25167948       0.94362841       0.00000000
Si      -1.54812015      -0.29431143      -3.01678486       0.00000000
Si      -3.03370299      -0.04945644       1.58317964       0.00000000
Si       0.71692290      -2.38169574      -2.73283474       0.00000000
Si      -2.03558211      -2.22959601       2.25150842       0.00000000
