10
Lattice="16.28999089631971 0.0 0.0 0.0 16.28999089631971 0.0 0.0 0.0 34.46413024517268" Properties=species:S:1:pos:R:3:initial_magmoms:R:1 pbc="T T T"
Si      -2.20905432       0.70330446       0.05128265       0.00000000
Si      -0.67600242      -2.12965686      -0.88703828       0.00000000
Si       0.96873372      -0.68613480       2.09080209       0.00000000
Si       0.93755466       2.03173767      -0.94380073       0.00000000
Si       3.17565405       1.31040018      -0.94786750       0.00000000
Si      -3.29916483      -0.78540606       1.52845057       0.00000000
Si      -3.05214327       0.46341792      -2.15545684       0.00000000
Si       1.16245440       1.20868542       3.45596152       0.00000000
Si       3.14480079      -1.49340204       1.64935080       0.00000000
Si      -2.74742253      -2.70078426       0.15832830       0.00000000
