10
Lattice="16.28999089631971 0.0 0.0 0.0 16.28999089631971 0.0 0.0 0.0 34.46413024517268" Properties=species:S:1:pos:R:3:initial_magmoms:R:1 pbc="T T T"
Si      -0.36833319       1.20791979      -2.01594596       0.00000000
Si       0.85416615       1.74202002       1.41146688       0.00000000
Si      -1.80775017      -0.89663418       1.34363454       0.00000000
Si       1.81345167      -1.84583619      -0.03797949       0.00000000
Si      -0.56205387      -0.68690043      -3.38110539       0.00000000
Si      -0.40246074      -2.18295774       2.78448757       0.00000000
Si       2.34768222       0.53481699       2.77094316       0.00000000
Si       1.69528401       2.40727104      -2.35090303       0.00000000
Si      -2.99470473      -2.28392316      -0.19158621       0.00000000
Si       0.97769322      -3.53826945       1.37119896       0.00000000
