10
Lattice="16.28999089631971 0.0 0.0 0.0 16.28999089631971 0.0 0.0 0.0 34.46413024517268" Properties=species:S:1:pos:R:3:initial_magmoms:R:1 pbc="T T T"
Si      -1.35777917      -1.35655301       1.35702589       0.00000000
Si       1.35730186      -1.35732027      -1.35743946       0.00000000
Si       1.35714548       1.35913986       1.35675017       0.00000000
Si      -1.35761627       1.35773892      -1.35781856       0.00000000
Si       0.00187865       2.71339272       2.71343142       0.00000000
Si       0.00003995      -2.71384984      -2.71453427       0.00000000
Si       2.71402755      -2.71476695       0.00041357       0.00000000
Si      -0.00016945       2.71580364      -2.71329356       0.00000000
Si       2.71464657       2.71454931       0.00006893       0.00000000
Si      -2.71529003      -0.00097740      -2.71401731       0.00000000
