10
Lattice="16.28999089631971 0.0 0.0 0.0 16.28999089631971 0.0 0.0 0.0 34.46413024517268" Properties=species:S:1:pos:R:3:initial_magmoms:R:1 pbc="T T T"
Si       1.34183988       1.34977311      -1.35719821       0.00000000
Si       1.39963680      -1.36208835       1.29847130       0.00000000
Si      -1.37749869       1.24758594       1.43877485       0.00000000
Si      -1.37469681      -1.36563957      -1.35264894       0.00000000
Si      -2.04921684      -0.72658287       2.69592363       0.00000000
Si      -0.20430918      -2.40870456       2.64588169       0.00000000
Si       2.69648370       2.68993512       0.01409584       0.00000000
Si       2.69736336      -0.00695583      -2.71322463       0.00000000
Si      -0.01542663       2.70602964      -2.71256982       0.00000000
Si      -2.74321971       2.68148061       0.01981689       0.00000000
