10
Lattice="16.28999089631971 0.0 0.0 0.0 16.28999089631971 0.0 0.0 0.0 34.46413024517268" Properties=species:S:1:pos:R:3:initial_magmoms:R:1 pbc="T T T"
Si       1.37749869      -1.24758594      -1.43877485       0.00000000
Si       0.97546149       1.69997553       1.32552565       0.00000000
Si      -0.67171815      -1.97416881       1.25714878       0.00000000
Si      -1.36572102       1.43389467      -1.41895796       0.00000000
Si       1.36780614       0.32544162       3.25010715       0.00000000
Si      -2.62555704      -2.60938107       0.00251588       0.00000000
Si      -0.88322751       3.39001483       1.24167438       0.00000000
Si       2.65253328       2.72461653      -0.05838227       0.00000000
Si       2.77713549      -2.60967429      -0.14030355       0.00000000
Si       0.00280188      -2.61322551      -2.79142379       0.00000000
