10
Lattice="16.28999089631971 0.0 0.0 0.0 16.28999089631971 0.0 0.0 0.0 34.46413024517268" Properties=species:S:1:pos:R:3:initial_magmoms:R:1 pbc="T T T"
Si      -0.43266240      -2.02763259      -1.14055656       0.00000000
Si       1.26895842      -0.32918832       1.97875914       0.00000000
Si      -1.93417686       1.35348723       0.42880295       0.00000000
Si       2.00837781       0.31442958      -1.43925735       0.00000000
Si      -1.36490652       1.96449255       2.67183319       0.00000000
Si       2.59603956       1.59285249       1.97400309       0.00000000
Si      -0.35168481      -0.17834292       3.61684017       0.00000000
Si      -3.72589767      -0.25811505       0.35122415       0.00000000
Si       3.42938709       1.67099562      -0.20361420       0.00000000
Si      -0.73257759       3.62169773      -1.19152904       0.00000000
