10
Lattice="16.28999089631971 0.0 0.0 0.0 16.28999089631971 0.0 0.0 0.0 34.46413024517268" Properties=species:S:1:pos:R:3:initial_magmoms:R:1 pbc="T T T"
Si       1.38406356       1.93112804       0.12768967       0.00000000
Si      -0.63170991      -0.32400810       2.29879324       0.00000000
Si       1.17244017      -2.05918632      -0.47064243       0.00000000
Si      -1.52772507       0.69025617      -1.76608088       0.00000000
Si       1.54755000      -1.08305694       3.03763567       0.00000000
Si      -0.46534014      -3.61346409      -1.21517145       0.00000000
Si       1.34987085       3.01526990      -1.97079793       0.00000000
Si       2.05009650      -2.97101907       1.61953931       0.00000000
Si       0.43680006       3.65538545       1.49136714       0.00000000
Si       2.64243348      -1.93316688      -2.39277697       0.00000000
