10
Lattice="16.28999089631971 0.0 0.0 0.0 16.28999089631971 0.0 0.0 0.0 34.46413024517268" Properties=species:S:1:pos:R:3:initial_magmoms:R:1 pbc="T T T"
Si       1.21106376       1.35422028       1.54126920       0.00000000
Si      -1.41126786      -1.23137739       1.53906005       0.00000000
Si      -1.21106376       0.07680735      -2.20532646       0.00000000
Si       1.66340448       0.15091056      -2.33129293       0.00000000
Si      -0.96141951       2.40259581      -1.76363392       0.00000000
Si      -2.55311541      -2.77115706       0.08795251       0.00000000
Si       2.70962973      -1.89504828      -1.84503824       0.00000000
Si       2.99866320       2.41041501       0.30772802       0.00000000
Si      -3.36344517      -1.21373532      -1.52865735       0.00000000
Si      -0.02959893      -2.55554262       2.95064958       0.00000000
