10
Lattice="16.28999089631971 0.0 0.0 0.0 16.28999089631971 0.0 0.0 0.0 34.46413024517268" Properties=species:S:1:pos:R:3:initial_magmoms:R:1 pbc="T T T"
Si       0.93859137      -1.03696506      -1.86919524       0.00000000
Si      -0.88363476      -1.85022702       1.24379427       0.00000000
Si       1.90421859       0.89129595       1.29862328       0.00000000
Si      -1.09994967      -0.25418965      -2.52515140       0.00000000
Si      -2.06690778      -0.41684365       2.67085475       0.00000000
Si       0.63459324       2.32000388       2.64777411       0.00000000
Si      -2.47751352       2.79189260       0.18024268       0.00000000
Si      -3.41690895       0.90673398       1.28012293       0.00000000
Si      -2.64130947      -2.87608977      -0.11714127       0.00000000
Si       3.26356208       2.26520432      -0.06089578       0.00000000
