10
Lattice="16.28999089631971 0.0 0.0 0.0 16.28999089631971 0.0 0.0 0.0 34.46413024517268" Properties=species:S:1:pos:R:3:initial_magmoms:R:1 pbc="T T T"
Si       1.86054606       1.09247256       0.93821582       0.00000000
Si      -0.93939543      -1.88515862       1.09988025       0.00000000
Si      -1.70856036       1.65346758      -0.23789883       0.00000000
Si      -0.92774808       1.86509097      -2.56322946       0.00000000
Si       0.42011910       2.23935372       2.47137074       0.00000000
Si      -2.31143697      -0.50253021       2.47392798       0.00000000
Si       2.47751352      -2.79189260      -0.18024268       0.00000000
Si      -3.61458810       0.76558113       0.96035214       0.00000000
Si      -0.93805965       3.57127299       1.06164917       0.00000000
Si       3.11210676      -0.47188872       2.46753144       0.00000000
