10
Lattice="16.28999089631971 0.0 0.0 0.0 16.28999089631971 0.0 0.0 0.0 34.46413024517268" Properties=species:S:1:pos:R:3:initial_magmoms:R:1 pbc="T T T"
Si      -1.30873860       1.96237485      -0.04907695       0.00000000
Si       0.57889773      -0.89106300       2.13905190       0.00000000
Si      -1.67508441      -1.48230855      -0.84395809       0.00000000
Si       1.47036798       0.32723352      -1.88243185       0.00000000
Si      -0.40120641       0.64322694      -3.37934772       0.00000000
Si      -1.11014721      -1.63574406      -3.08760869       0.00000000
Si      -0.91206081       2.71640637      -2.40556317       0.00000000
Si      -0.99802314      -2.63839193       2.59377189       0.00000000
Si      -1.69433919      -3.41379430       0.47047010       0.00000000
Si       2.64730419      -1.57602492      -2.39825677       0.00000000
