10
Lattice="16.28999089631971 0.0 0.0 0.0 16.28999089631971 0.0 0.0 0.0 34.46413024517268" Properties=species:S:1:pos:R:3:initial_magmoms:R:1 pbc="T T T"
Si      -0.55324098       1.97124964       1.23922742       0.00000000
Si      -1.72452456      -1.67058252       0.18152268       0.00000000
Si       1.78692245      -1.14537663       1.14300352       0.00000000
Si       0.67923503       0.57762059      -2.29196933       0.00000000
Si      -0.43606701      -3.71207790       0.25296686       0.00000000
Si      -2.85619086       2.34336211       0.78212941       0.00000000
Si       2.51130617       2.09647087      -2.00657171       0.00000000
Si       1.89445274      -3.44725137       0.49524983       0.00000000
Si       1.55566635      -0.95398542       3.54543045       0.00000000
Si       0.70897405       3.91119316       0.62452485       0.00000000
