10
Lattice="16.28999089631971 0.0 0.0 0.0 16.28999089631971 0.0 0.0 0.0 34.46413024517268" Properties=species:S:1:pos:R:3:initial_magmoms:R:1 pbc="T T T"
Si      -1.35491423       1.35635427      -1.36147176       0.00000000
Si       1.36156707      -1.35812988      -1.36226444       0.00000000
Si      -1.36642149      -1.37458278       1.34682450       0.00000000
Si       1.38650706       1.35812988       1.36119605       0.00000000
Si      -2.71091603       2.71261080       0.00048250       0.00000000
Si      -2.71017781      -2.71795392      -0.00592783       0.00000000
Si       2.71989243       2.70889668      -0.00610015       0.00000000
Si      -2.71218763      -0.00148239      -2.71911800       0.00000000
Si       0.00294849       2.71368594      -2.71929032       0.00000000
Si       2.71798650      -2.71801908      -0.00306731       0.00000000
