10
Lattice="16.28999089631971 0.0 0.0 0.0 16.28999089631971 0.0 0.0 0.0 34.46413024517268" Properties=species:S:1:pos:R:3:initial_magmoms:R:1 pbc="T T T"
Si      -1.86054606      -1.09247256      -0.93821582       0.00000000
Si      -1.44042696       1.14688116       1.53315492       0.00000000
Si       1.25156070      -1.56436128       1.52931562       0.00000000
Si       1.48738356       1.22153823      -1.68066979       0.00000000
Si       2.63251354       2.54545911       0.07986722       0.00000000
Si      -2.79860571       2.47880043       0.12343335       0.00000000
Si      -3.56910642       0.56099502      -1.17611464       0.00000000
Si      -0.09827757       2.49052923       2.90831585       0.00000000
Si       2.61663079      -0.22693599       2.90380104       0.00000000
Si       2.52118605      -2.99306921       0.18016479       0.00000000
