10
Lattice="16.28999089631971 0.0 0.0 0.0 16.28999089631971 0.0 0.0 0.0 34.46413024517268" Properties=species:S:1:pos:R:3:initial_magmoms:R:1 pbc="T T T"
Si       1.35801585       1.35632169      -1.35654339       0.00000000
Si      -1.35886293      -1.35648459      -1.35706035       0.00000000
Si       1.35726651      -1.35788553       1.35737053       0.00000000
Si      -1.35809730       1.35782037       1.35723267       0.00000000
Si       2.71213839       0.00244350      -2.71325910       0.00000000
Si      -2.71212210      -0.00061902      -2.71608516       0.00000000
Si       2.71438641      -0.00177561       2.71463766       0.00000000
Si       2.71466334       2.71469592       0.00010339       0.00000000
Si       2.71474479      -2.71479366      -0.00027571       0.00000000
Si      -2.71494027       2.71476108       0.00041357       0.00000000
