10
Lattice="16.28999089631971 0.0 0.0 0.0 16.28999089631971 0.0 0.0 0.0 34.46413024517268" Properties=species:S:1:pos:R:3:initial_magmoms:R:1 pbc="T T T"
Si      -1.35606105       1.35498591       1.35978302       0.00000000
Si      -1.35754344      -1.35681039      -1.35719821       0.00000000
Si       1.35747828       1.35773892      -1.35733606       0.00000000
Si       1.35736425      -1.35656604       1.35936945       0.00000000
Si       2.71479366      -2.71346114      -0.00013786       0.00000000
Si       2.71459818       2.71384884      -0.00006893       0.00000000
Si      -2.71451673      -2.71420233       0.00013786       0.00000000
Si      -0.00039096      -2.71461447      -2.71480998       0.00000000
Si      -2.71477737       0.00019548      -2.71491338       0.00000000
Si       2.71495656       0.00083079      -2.71498231       0.00000000
