10
Lattice="16.28999089631971 0.0 0.0 0.0 16.28999089631971 0.0 0.0 0.0 34.46413024517268" Properties=species:S:1:pos:R:3:initial_magmoms:R:1 pbc="T T T"
Si      -0.27746757       1.91088216       1.29747184       0.00000000
Si       0.65765988       1.08043425      -2.02256308       0.00000000
Si       1.68327828      -1.32014160       1.11553559       0.00000000
Si      -2.25465492      -0.72980829      -0.45851105       0.00000000
Si      -0.21929598       0.54143073       3.26540924       0.00000000
Si      -1.27450354      -2.44017684      -1.94457071       0.00000000
Si      -0.15771978      -0.78525945      -3.33699128       0.00000000
Si      -3.05796599      -0.80857044       1.84121272       0.00000000
Si      -0.92750373       2.84192082      -2.17251659       0.00000000
Si       3.69642906      -0.48347091       0.18734712       0.00000000
