10
Lattice="16.28999089631971 0.0 0.0 0.0 16.28999089631971 0.0 0.0 0.0 34.46413024517268" Properties=species:S:1:pos:R:3:initial_magmoms:R:1 pbc="T T T"
Si      -1.96382466       0.71695548      -1.16461254       0.00000000
Si      -0.78081228      -0.21162339       2.32533063       0.00000000
Si       1.30002345       2.21467437       0.09543123       0.00000000
Si       0.58798755      -2.12612193      -1.79492737       0.00000000
Si       0.92774808      -1.86509097       2.56322946       0.00000000
Si      -0.01031157       1.70618202       3.62487863       0.00000000
Si      -3.77610345      -0.82538172      -1.17271162       0.00000000
Si       0.62600841       3.75028380      -1.56887701       0.00000000
Si      -1.71559764       1.43697348      -3.45909776       0.00000000
Si       0.57024774      -1.09485090      -3.94314674       0.00000000
