10
Lattice="16.28999089631971 0.0 0.0 0.0 16.28999089631971 0.0 0.0 0.0 34.46413024517268" Properties=species:S:1:pos:R:3:initial_magmoms:R:1 pbc="T T T"
Si      -2.37125385       0.24472467       0.30304327       0.00000000
Si       1.00038423       2.22215148      -0.37279871       0.00000000
Si       0.16223211      -1.34485353      -2.17096571       0.00000000
Si       0.60440040      -1.52102988       2.02838752       0.00000000
Si       1.99586287      -3.11572314       0.74463241       0.00000000
Si      -3.04526889       1.78033410      -1.36126498       0.00000000
Si       3.18193289       1.83888036      -1.18260283       0.00000000
Si      -2.84583042       1.42866558       2.42331221       0.00000000
Si       0.88298872       3.20295609       2.23275993       0.00000000
Si       2.67181154       1.56144537       2.54083496       0.00000000
