10
Lattice="16.28999089631971 0.0 0.0 0.0 16.28999089631971 0.0 0.0 0.0 34.46413024517268" Properties=species:S:1:pos:R:3:initial_magmoms:R:1 pbc="T T T"
Si       1.37600001       1.33832124       1.35430322       0.00000000
Si      -1.35713619       1.35843939      -1.36029998       0.00000000
Si       1.35707103      -1.35866745      -1.36092034       0.00000000
Si      -1.36673100      -1.35404109       1.37198333       0.00000000
Si       0.05751999       2.71852407       2.64974167       0.00000000
Si       2.71618611       2.71453302       0.00182660       0.00000000
Si      -2.71358820      -2.71753038      -0.00106839       0.00000000
Si      -2.71681362       2.71497285      -0.00137857       0.00000000
Si       2.71491450       0.00043983      -2.71777390       0.00000000
Si       2.71692433      -2.71603170      -0.00458373       0.00000000
