10
Lattice="16.28999089631971 0.0 0.0 0.0 16.28999089631971 0.0 0.0 0.0 34.46413024517268" Properties=species:S:1:pos:R:3:initial_magmoms:R:1 pbc="T T T"
Si      -1.61067375      -1.02209976      -1.34520468       0.00000000
Si      -1.16756946       0.19319940       2.02831859       0.00000000
Si       1.11226851       1.77966621      -1.15010313       0.00000000
Si       1.61084384      -1.45054305       1.16147630       0.00000000
Si       2.42278794       0.33410790      -2.60673041       0.00000000
Si      -0.29219373      -2.40230259      -2.64064314       0.00000000
Si       0.24865056       1.80701712       3.29577215       0.00000000
Si       3.17667122       0.43407963       2.00391797       0.00000000
Si      -3.21461973      -2.06871597       0.00220571       0.00000000
Si      -2.26080765      -2.07948366       2.40914744       0.00000000
