10
Lattice="16.28999089631971 0.0 0.0 0.0 16.28999089631971 0.0 0.0 0.0 34.46413024517268" Properties=species:S:1:pos:R:3:initial_magmoms:R:1 pbc="T T T"
Si       1.86311581       0.91751796       1.09034230       0.00000000
Si       1.31599987      -1.32517521      -1.42557508       0.00000000
Si      -1.36868077       1.38580659      -1.41944046       0.00000000
Si      -1.22839129      -1.33692030       1.59944671       0.00000000
Si       0.53435680       2.33756613       2.38267898       0.00000000
Si      -2.69651125      -2.62018134       0.00592783       0.00000000
Si       3.44827942      -0.84396861       1.24029581       0.00000000
Si       2.63289976      -2.70966231      -0.07413239       0.00000000
Si      -0.02775645      -2.66854635      -2.77832741       0.00000000
Si       2.68242136       0.04940757      -2.77239958       0.00000000
