10
Lattice="16.28999089631971 0.0 0.0 0.0 16.28999089631971 0.0 0.0 0.0 34.46413024517268" Properties=species:S:1:pos:R:3:initial_magmoms:R:1 pbc="T T T"
Si       0.96638796      -0.73125810      -1.97844897       0.00000000
Si       1.79960517      -0.10068849       1.48388842       0.00000000
Si      -2.17782639      -0.79369767       0.55201228       0.00000000
Si      -0.45424665       2.07459666      -1.11650059       0.00000000
Si       0.85869477      -2.26572723       1.56598203       0.00000000
Si      -2.16663516       2.83121829       0.28395013       0.00000000
Si      -3.53931201       0.96604587      -0.16143008       0.00000000
Si      -0.64457901      -0.75476457      -3.69955413       0.00000000
Si       2.45223211       1.04164776      -2.77560474       0.00000000
Si       1.65332097       1.34296389       3.28722504       0.00000000
