10
Lattice="16.28999089631971 0.0 0.0 0.0 16.28999089631971 0.0 0.0 0.0 34.46413024517268" Properties=species:S:1:pos:R:3:initial_magmoms:R:1 pbc="T T T"
Si       1.01533941      -2.08512000       0.25879130       0.00000000
Si       0.66137400       1.22064228      -1.89187502       0.00000000
Si      -2.37439782      -0.28347858      -0.38058760       0.00000000
Si       1.03342131       0.67851108       2.12302607       0.00000000
Si       0.12282660      -2.80590363       2.30058537       0.00000000
Si      -0.77028894       1.64092428       3.24000916       0.00000000
Si       2.99189375       1.48546881      -1.64959205       0.00000000
Si      -0.62708355       3.26213766      -1.96331920       0.00000000
Si       3.32952029      -1.80182061       0.75297274       0.00000000
Si       1.50839440      -1.26781812       3.43824695       0.00000000
