10
Lattice="16.28999089631971 0.0 0.0 0.0 16.28999089631971 0.0 0.0 0.0 34.46413024517268" Properties=species:S:1:pos:R:3:initial_magmoms:R:1 pbc="T T T"
Si       0.14628420      -1.44365238      -1.80333662       0.00000000
Si      -1.01533941       2.08512000      -0.25879130       0.00000000
Si      -0.89251281      -0.72078363       2.04179407       0.00000000
Si       2.31418088       0.28329939       0.49418144       0.00000000
Si       0.49305499       0.81730188       3.17945565       0.00000000
Si       0.01808190       2.76363108       1.86423478       0.00000000
Si       2.40141383      -1.28125737      -2.54624583       0.00000000
Si       3.44503268      -1.53337770      -0.48715075       0.00000000
Si      -1.02978864      -3.06649476       2.00729546       0.00000000
Si      -3.38973723       1.80164142      -0.63937890       0.00000000
