10
Lattice="16.28999089631971 0.0 0.0 0.0 16.28999089631971 0.0 0.0 0.0 34.46413024517268" Properties=species:S:1:pos:R:3:initial_magmoms:R:1 pbc="T T T"
Si      -2.23809939       0.72133749       0.00406677       0.00000000
Si       1.40561523       1.76326218      -0.70875523       0.00000000
Si       0.04611699      -2.13012927      -1.08258786       0.00000000
Si       0.88150077      -0.65829519       2.13577781       0.00000000
Si      -3.17565405      -1.31040018       0.94786750       0.00000000
Si       2.32099920       2.65095315       1.26483429       0.00000000
Si       3.20932548       0.80084898      -1.82573832       0.00000000
Si       3.18969603      -0.95084730       1.79027471       0.00000000
Si      -0.03085326      -2.80380222       2.59721831       0.00000000
Si       3.68429857      -1.14548022      -0.51051745       0.00000000
