10
Lattice="16.28999089631971 0.0 0.0 0.0 16.28999089631971 0.0 0.0 0.0 34.46413024517268" Properties=species:S:1:pos:R:3:initial_magmoms:R:1 pbc="T T T"
Si       0.87462639       0.07483626       2.20580896       0.00000000
Si      -1.07541693       2.03265873      -0.72023180       0.00000000
Si       1.63317024      -0.23395698      -1.77555852       0.00000000
Si      -1.56141279      -1.85924286       0.12827556       0.00000000
Si      -0.00146610      -0.16809651      -3.50951881       0.00000000
Si      -1.77173298       1.25725635      -2.84353358       0.00000000
Si      -0.52549911       1.62533868       3.30762782       0.00000000
Si      -0.11414403      -3.77957322      -0.19282692       0.00000000
Si       0.50150394       3.77998766      -1.17495178       0.00000000
Si      -2.94919047      -1.93929192      -1.86668173       0.00000000
