10
Lattice="16.28999089631971 0.0 0.0 0.0 16.28999089631971 0.0 0.0 0.0 34.46413024517268" Properties=species:S:1:pos:R:3:initial_magmoms:R:1 pbc="T T T"
Si      -1.80371025       0.96241320       1.11698309       0.00000000
Si       0.47497309      -1.94632920       1.31522087       0.00000000
Si       1.99325159       1.31388624       0.41894620       0.00000000
Si      -1.03342131      -0.67851108      -2.12302607       0.00000000
Si      -0.01808190      -2.76363108      -1.86423478       0.00000000
Si      -0.91059471      -3.48441471       0.17755930       0.00000000
Si       2.29609898      -2.48033169      -1.37005334       0.00000000
Si       2.77631189      -2.22275421       0.90816480       0.00000000
Si      -0.88832628       1.85010417       3.09057261       0.00000000
Si       1.61968605       3.30022368      -0.72243750       0.00000000
