10
Lattice="16.28999089631971 0.0 0.0 0.0 16.28999089631971 0.0 0.0 0.0 34.46413024517268" Properties=species:S:1:pos:R:3:initial_magmoms:R:1 pbc="T T T"
Si      -2.06361720      -1.19935125       0.33495707       0.00000000
Si       0.56011536       2.00958327      -1.27162372       0.00000000
Si       0.05667291       1.10519505       2.36306887       0.00000000
Si       0.83108322      -1.75593168      -1.93309415       0.00000000
Si      -3.10984245       0.84660759      -0.15129762       0.00000000
Si      -1.69528401      -2.40727104       2.35090303       0.00000000
Si      -0.84111786      -0.66525102       3.76236991       0.00000000
Si       2.27058165       1.55331666      -2.80403767       0.00000000
Si      -2.25733788      -3.09417147      -1.03020236       0.00000000
Si       1.59803271       3.72709517      -0.04494125       0.00000000
