10
Lattice="16.28999089631971 0.0 0.0 0.0 16.28999089631971 0.0 0.0 0.0 34.46413024517268" Properties=species:S:1:pos:R:3:initial_magmoms:R:1 pbc="T T T"
Si       1.28326430      -1.23541731       1.56331105       0.00000000
Si       1.57550690       1.18470654      -1.58782337       0.00000000
Si      -0.92455361      -1.86323391      -1.45827264       0.00000000
Si      -1.42518364       1.45383363       1.52738907       0.00000000
Si      -0.00599146       1.52182809      -3.33811967       0.00000000
Si       2.62020089      -2.59522506       0.20713298       0.00000000
Si       0.86426921      -3.50474463      -1.15019760       0.00000000
Si       2.62383356       2.82581001      -0.02181236       0.00000000
Si      -2.78463282      -2.67794568      -0.07191634       0.00000000
Si      -0.07196107      -2.60407053       2.92086080       0.00000000
