10
Lattice="16.28999089631971 0.0 0.0 0.0 16.28999089631971 0.0 0.0 0.0 34.46413024517268" Properties=species:S:1:pos:R:3:initial_magmoms:R:1 pbc="T T T"
Si      -1.32875901       1.42004817       1.29233668       0.00000000
Si      -1.86311581      -0.91751796      -1.09034230       0.00000000
Si       1.58516361      -1.76148657       0.14995351       0.00000000
Si       1.08537012       1.88647974      -0.96706404       0.00000000
Si       1.91769138       1.61196066       1.77114711       0.00000000
Si       2.20581261       0.49001949      -2.50154583       0.00000000
Si      -0.54711594      -2.24269317      -2.51591738       0.00000000
Si       0.65003616      -0.93103866       3.46998843       0.00000000
Si       0.92750373      -2.84192082       2.17251659       0.00000000
Si      -1.29597376       0.34759602       3.48256784       0.00000000
