10
Lattice="16.28999089631971 0.0 0.0 0.0 16.28999089631971 0.0 0.0 0.0 34.46413024517268" Properties=species:S:1:pos:R:3:initial_magmoms:R:1 pbc="T T T"
Si      -0.93649581       1.99436841      -0.66705361       0.00000000
Si       1.21270905       0.78835455       1.87202367       0.00000000
Si       1.59409053      -0.45385569      -1.69194849       0.00000000
Si      -1.53393156      -1.81973961       0.57913557       0.00000000
Si      -0.70012791       1.76963157       2.79487020       0.00000000
Si      -0.49031271      -2.07185994       2.63823064       0.00000000
Si       1.76132367      -1.39113342       2.59390975       0.00000000
Si      -2.46655849       1.28389635      -2.25674697       0.00000000
Si      -1.13225274      -3.48788448      -0.98209040       0.00000000
Si      -1.95879105       3.03210657       1.21699805       0.00000000
