10
Lattice="16.28999089631971 0.0 0.0 0.0 16.28999089631971 0.0 0.0 0.0 34.46413024517268" Properties=species:S:1:pos:R:3:initial_magmoms:R:1 pbc="T T T"
Si       1.35618811      -1.35832536       1.36085141       0.00000000
Si      -1.35858141       1.35906460       1.36105819       0.00000000
Si       1.35534103       1.34436483      -1.38029608       0.00000000
Si      -1.35522461      -1.37003787      -1.39416101       0.00000000
Si      -0.09938040       2.66429207      -2.72336054       0.00000000
Si       2.71097854      -2.71441899       0.00375659       0.00000000
Si      -2.71485297      -2.71495656      -0.00027571       0.00000000
Si       2.71576780       2.71468030       0.00017232       0.00000000
Si       2.71355236       0.00066789       2.71798069       0.00000000
Si      -0.00120546      -2.71467963       2.71829086       0.00000000
