10
Lattice="10.86 0.0 0.0 0.0 10.86 0.0 0.0 0.0 10.86" Properties=species:S:1:pos:R:3:initial_magmoms:R:1 pbc="T T T"
Si       1.28076324       1.31353872       1.35410082       0.00000000
Si      -1.43423676       1.31353872      -1.36089918       0.00000000
Si      -1.43423676      -1.40146128       1.35410082       0.00000000
Si      -0.00638568      -2.65675782      -2.56623972       0.00000000
Si       2.56219980       2.70111006       0.02616174       0.00000000
Si       2.63826324      -0.04396128       2.71160082       0.00000000
Si       2.69996976      -0.00546258      -2.66094978       0.00000000
Si      -0.07673676       2.67103872       2.71160082       0.00000000
Si      -0.09764226       2.59877628      -2.79773148       0.00000000
Si       2.66392542      -2.73731730      -0.05894808       0.00000000
