10
Lattice="16.28999089631971 0.0 0.0 0.0 16.28999089631971 0.0 0.0 0.0 34.529650657227435" Properties=species:S:1:pos:R:3:initial_magmoms:R:1 pbc="T T T"
Si       1.35433431       1.35843939       1.35639450       0.00000000
Si       1.35689184      -1.35781385      -1.35646355       0.00000000
Si      -1.35796698       1.35700587      -1.35694697       0.00000000
Si      -1.35747828      -1.35929624       1.35767209       0.00000000
Si       0.00452862       2.70839169       2.70999209       0.00000000
Si       2.71296918       0.00001629      -2.71361770       0.00000000
Si       2.71370223       2.71355562      -0.00017265       0.00000000
Si       0.00065160       2.71376739      -2.71399753       0.00000000
Si      -0.00501732      -2.71483343       2.71444641       0.00000000
Si       2.71384884      -2.71548509       0.00055247       0.00000000
