10
Lattice="16.28999089631971 0.0 0.0 0.0 16.28999089631971 0.0 0.0 0.0 34.529650657227435" Properties=species:S:1:pos:R:3:initial_magmoms:R:1 pbc="T T T"
Si      -0.32812947       2.19054888       0.72560648       0.00000000
Si       1.65843603      -0.52015599      -1.56650754       0.00000000
Si       1.28138769      -0.89634096       1.75365835       0.00000000
Si      -2.29535874      -0.81940329      -0.41428698       0.00000000
Si      -1.57907115       1.22212467       2.53768903       0.00000000
Si      -2.20794660      -1.07900073       2.27388236       0.00000000
Si       1.57157775      -2.84888203      -1.01482700       0.00000000
Si      -1.00253547       2.99584503      -1.43446608       0.00000000
Si      -0.29696670      -2.29445465       2.79113681       0.00000000
Si       1.92324627       0.96907581       3.06526786       0.00000000
