10
Lattice="16.28999089631971 0.0 0.0 0.0 16.28999089631971 0.0 0.0 0.0 34.529650657227435" Properties=species:S:1:pos:R:3:initial_magmoms:R:1 pbc="T T T"
Si       0.56151630      -2.03477250      -0.92988401       0.00000000
Si       1.57136598       0.69962292       1.61850922       0.00000000
Si       0.19991088       1.74996954      -1.57655567       0.00000000
Si      -1.40196627      -0.12232161       1.90220499       0.00000000
Si      -0.28121427       1.85997591       2.82041797       0.00000000
Si      -0.02539611      -1.65925868      -3.13246260       0.00000000
Si       2.94767550      -1.67421452      -1.21195689       0.00000000
Si      -0.35145675      -2.07090860       3.09841634       0.00000000
Si       0.58562550       3.76228953      -0.44343002       0.00000000
Si       1.83671379      -1.02598004       3.30034585       0.00000000
