10
Lattice="16.28999089631971 0.0 0.0 0.0 16.28999089631971 0.0 0.0 0.0 34.529650657227435" Properties=species:S:1:pos:R:3:initial_magmoms:R:1 pbc="T T T"
Si       0.58691241      -0.37551382       2.20257859       0.00000000
Si       0.02989215      -2.15055597      -0.85319361       0.00000000
Si      -1.91097990       1.21545391      -0.51725446       0.00000000
Si       1.57835439       1.39811368      -1.03747846       0.00000000
Si       2.97307161      -0.01495585       1.92050571       0.00000000
Si       0.02539611       1.65925868       3.13246260       0.00000000
Si      -0.04321737      -1.75710360      -3.12617820       0.00000000
Si       3.12196221      -0.19873800      -1.79833974       0.00000000
Si       0.29696670       2.29445465      -2.79113681       0.00000000
Si      -1.28210445       3.51657931      -0.25344778       0.00000000
