10
Lattice="16.28999089631971 0.0 0.0 0.0 16.28999089631971 0.0 0.0 0.0 34.529650657227435" Properties=species:S:1:pos:R:3:initial_magmoms:R:1 pbc="T T T"
Si      -1.35896067      -1.35659862      -1.35601467       0.00000000
Si       1.35796698      -1.35700587       1.35694697       0.00000000
Si       1.35861858       1.35676152      -1.35705056       0.00000000
Si      -1.35769005       1.35780408       1.35753397       0.00000000
Si       2.71230129       0.00143352       2.71334146       0.00000000
Si      -0.00053757       2.71308321       2.71489530       0.00000000
Si       2.71298547      -0.00081450      -2.71524060       0.00000000
Si      -2.71501683       0.00110772      -2.71347958       0.00000000
Si       2.71459818       2.71503801       0.00051795       0.00000000
Si       2.71485882      -2.71481972       0.00048342       0.00000000
