10
Lattice="16.28999089631971 0.0 0.0 0.0 16.28999089631971 0.0 0.0 0.0 34.529650657227435" Properties=species:S:1:pos:R:3:initial_magmoms:R:1 pbc="T T T"
Si      -2.20041315      -0.14476597      -0.71552382       0.00000000
Si       0.54098927      -2.31351136      -0.08345821       0.00000000
Si       1.60506836       0.92328462      -1.55759888       0.00000000
Si      -0.24270797       0.80418843       2.28645116       0.00000000
Si      -2.83712409      -1.84593949       0.82712371       0.00000000
Si       2.82400019      -2.08745503      -0.32102234       0.00000000
Si       2.84819084      -0.94164901      -2.32678181       0.00000000
Si       3.29025257      -0.95355700       1.69854899       0.00000000
Si       1.38277502       2.43470503       2.68837651       0.00000000
Si      -3.36558798       1.89423541      -0.59201119       0.00000000
