10
Lattice="16.28999089631971 0.0 0.0 0.0 16.28999089631971 0.0 0.0 0.0 34.529650657227435" Properties=species:S:1:pos:R:3:initial_magmoms:R:1 pbc="T T T"
Si      -0.26924112      -1.44335916       1.81401621       0.00000000
Si      -2.21035752       0.75370572      -0.42571630       0.00000000
Si       0.92678697      -1.44515106      -1.67769307       0.00000000
Si       1.48444254       1.83229920       0.58203212       0.00000000
Si      -0.65495574      -3.45567915       0.68089056       0.00000000
Si      -1.99218555       3.00895848       0.27520147       0.00000000
Si       2.57018733       0.06810849      -2.59359257       0.00000000
Si       1.81809432      -1.28001933       2.91900018       0.00000000
Si      -0.02489112       3.42065565       1.52413963       0.00000000
Si       2.76071517       2.21757399      -1.39962564       0.00000000
