10
Lattice="16.28999089631971 0.0 0.0 0.0 16.28999089631971 0.0 0.0 0.0 34.529650657227435" Properties=species:S:1:pos:R:3:initial_magmoms:R:1 pbc="T T T"
Si      -1.34638479      -1.32476796       1.37792720       0.00000000
Si      -1.39452174       1.21226922      -1.49894333       0.00000000
Si       1.36629117       1.38924378       1.36784453       0.00000000
Si       1.22469849      -1.50302943      -1.50133969       0.00000000
Si       2.28493314       0.35567586      -2.60880082       0.00000000
Si       0.51064263       2.10802374      -2.82262239       0.00000000
Si      -2.68835499      -2.68983738       0.01099770       0.00000000
Si       2.72184723      -2.69159670      -0.01602522       0.00000000
Si       0.00648342      -2.68394040       2.73321674       0.00000000
Si      -2.69434971       2.74160700      -0.01998232       0.00000000
