10
Lattice="16.28999089631971 0.0 0.0 0.0 16.28999089631971 0.0 0.0 0.0 34.529650657227435" Properties=species:S:1:pos:R:3:initial_magmoms:R:1 pbc="T T T"
Si       1.39452174      -1.21226922       1.49894333       0.00000000
Si      -1.55492937      -1.18846953      -1.45592769       0.00000000
Si       1.90516437       0.89575452      -1.32367905       0.00000000
Si      -1.29982797       1.52933778       1.47896101       0.00000000
Si       2.61922023      -2.71529865      -0.00239636       0.00000000
Si      -2.66235615      -2.68403814       0.04493691       0.00000000
Si       0.04813695      -2.53703718       2.87687053       0.00000000
Si      -2.66851377       0.17490573       2.86841076       0.00000000
Si      -2.60670951       2.94156675       0.01467166       0.00000000
Si       3.67945488      -0.85659336      -1.10985749       0.00000000
