10
Lattice="16.28999089631971 0.0 0.0 0.0 16.28999089631971 0.0 0.0 0.0 34.529650657227435" Properties=species:S:1:pos:R:3:initial_magmoms:R:1 pbc="T T T"
Si      -0.32193927       1.74620655      -1.54423590       0.00000000
Si       2.03455584       0.40537665       1.15929914       0.00000000
Si      -1.79835084       0.26112870       1.57659020       0.00000000
Si       0.34070535      -1.87574463      -1.50345636       0.00000000
Si       3.23139843       1.07585676      -0.71946020       0.00000000
Si       1.82389356       1.75977612      -2.54621786       0.00000000
Si       1.49806098       2.33142480       2.52529288       0.00000000
Si      -1.64115234      -3.09347100      -1.34831455       0.00000000
Si      -0.38665944       3.48817770       1.69744405       0.00000000
Si      -0.45976896       3.88163007      -0.57554054       0.00000000
