10
Lattice="16.28999089631971 0.0 0.0 0.0 16.28999089631971 0.0 0.0 0.0 34.529650657227435" Properties=species:S:1:pos:R:3:initial_magmoms:R:1 pbc="T T T"
Si      -1.96397846      -1.09583516       0.61245276       0.00000000
Si       1.10087820       1.26548572       1.65214112       0.00000000
Si       1.48232484      -1.61571422      -0.88043752       0.00000000
Si      -0.68146120       1.33993265      -1.85569352       0.00000000
Si       0.94402179       2.97044925      -1.45376816       0.00000000
Si      -2.19808205      -2.25726329      -1.40584098       0.00000000
Si       0.40671243       3.31573209       0.87898728       0.00000000
Si       3.13567839       1.69608255       0.47167529       0.00000000
Si      -0.06050106      -2.91345707      -2.15599806       0.00000000
Si      -1.34178612      -2.51848973       2.35495802       0.00000000
