10
Lattice="16.28999089631971 0.0 0.0 0.0 16.28999089631971 0.0 0.0 0.0 34.529650657227435" Properties=species:S:1:pos:R:3:initial_magmoms:R:1 pbc="T T T"
Si      -1.35855342       1.35861858      -1.36050353       0.00000000
Si       1.35783666      -1.35804843      -1.36185018       0.00000000
Si       1.35597960       1.35583299       1.37203644       0.00000000
Si      -1.35809730      -1.36933740       1.39372107       0.00000000
Si      -0.07982100       2.70076792       2.69286537       0.00000000
Si      -2.71103067      -2.71427238      -0.00044889       0.00000000
Si       2.71946889       2.71241532      -0.00476509       0.00000000
Si       2.64893319      -0.15561837       2.77773930       0.00000000
Si       2.71718829      -2.71583622      -0.00431621       0.00000000
Si       0.00004887      -2.71490769      -2.71862450       0.00000000
