10
Lattice="16.28999089631971 0.0 0.0 0.0 16.28999089631971 0.0 0.0 0.0 34.529650657227435" Properties=species:S:1:pos:R:3:initial_magmoms:R:1 pbc="T T T"
Si       2.15194158      -0.85866219       0.30634723       0.00000000
Si      -0.46625238      -1.13389803      -2.01957134       0.00000000
Si       0.19676691       2.37349277       0.22710164       0.00000000
Si      -1.36917450      -1.19790144       1.56315816       0.00000000
Si      -2.74926330      -1.35995436      -1.78200721       0.00000000
Si       0.28417905       2.11389533       2.91527097       0.00000000
Si       2.22505110      -1.25211456       2.57933182       0.00000000
Si      -2.85149934       0.41781278       2.44359568       0.00000000
Si       0.17019792      -2.26038411       3.04720884       0.00000000
Si       0.01094688       3.12525998      -2.19059679       0.00000000
