10
Lattice="16.28999089631971 0.0 0.0 0.0 16.28999089631971 0.0 0.0 0.0 34.529650657227435" Properties=species:S:1:pos:R:3:initial_magmoms:R:1 pbc="T T T"
Si      -0.69416577       2.05024637      -0.77315384       0.00000000
Si      -1.10087820      -1.26548572      -1.65214112       0.00000000
Si       2.03480019       0.43059683      -1.18046583       0.00000000
Si      -0.85428018      -0.57637930       2.17802799       0.00000000
Si      -0.15685641       1.70496353      -3.10590928       0.00000000
Si      -0.62296218      -3.00524829       2.09591644       0.00000000
Si      -2.97166157       2.31859154      -0.65281794       0.00000000
Si       0.38144664      -2.88119994      -2.53257864       0.00000000
Si       2.66367564       2.73172223      -0.91665915       0.00000000
Si      -1.78233940       0.07444693      -3.50783464       0.00000000
