10
Lattice="16.28999089631971 0.0 0.0 0.0 16.28999089631971 0.0 0.0 0.0 34.529650657227435" Properties=species:S:1:pos:R:3:initial_magmoms:R:1 pbc="T T T"
Si      -1.37399634      -1.34904495       1.34016555       0.00000000
Si       1.35676152      -1.36092850      -1.35691244       0.00000000
Si       1.36554183       1.35117405       1.35877704       0.00000000
Si      -1.35977517       1.35721764      -1.35901875       0.00000000
Si       2.62462851      -0.08723295       2.69517886       0.00000000
Si      -0.05626566       2.67336819       2.73102066       0.00000000
Si      -2.70958086       2.70716994      -0.00542116       0.00000000
Si      -0.00040725       2.71233387      -2.71558589       0.00000000
Si      -0.07926714      -2.73127008       2.69693987       0.00000000
Si      -2.71410948      -0.00122175      -2.71541325       0.00000000
