10
Lattice="16.28999089631971 0.0 0.0 0.0 16.28999089631971 0.0 0.0 0.0 34.529650657227435" Properties=species:S:1:pos:R:3:initial_magmoms:R:1 pbc="T T T"
Si      -1.65843603       0.52015599       1.56650754       0.00000000
Si      -0.08685828      -2.32872604       0.55168054       0.00000000
Si       2.32940484       0.50510403       0.38217439       0.00000000
Si      -0.38880972       0.85123395      -2.25609958       0.00000000
Si      -0.37704834      -0.37618497       3.32016588       0.00000000
Si       1.16655948      -1.97303666       2.55930461       0.00000000
Si      -0.84369168       3.07696923      -1.47562545       0.00000000
Si       3.13274619      -0.32742900      -1.66029012       0.00000000
Si       0.62656227      -3.43455821      -1.37552393       0.00000000
Si       3.18782268      -1.16023733       1.80465867       0.00000000
