10
Lattice="16.28999089631971 0.0 0.0 0.0 16.28999089631971 0.0 0.0 0.0 34.529650657227435" Properties=species:S:1:pos:R:3:initial_magmoms:R:1 pbc="T T T"
Si       1.35640314      -1.35698958      -1.35749944       0.00000000
Si       1.35778779       1.35685926       1.35677432       0.00000000
Si      -1.35777150       1.35726651      -1.35791380       0.00000000
Si      -1.35865116      -1.35951453       1.35794833       0.00000000
Si       0.00149868      -2.70984150       2.71517154       0.00000000
Si      -0.00288333      -2.71443528      -2.71420471       0.00000000
Si       2.71435383      -2.71428867      -0.00010359       0.00000000
Si       2.71370223      -0.00144981      -2.71517154       0.00000000
Si      -2.71107954       0.00063531       2.71817562       0.00000000
Si       2.71507059       2.71498914      -0.00034530       0.00000000
