10
Lattice="16.28999089631971 0.0 0.0 0.0 16.28999089631971 0.0 0.0 0.0 34.529650657227435" Properties=species:S:1:pos:R:3:initial_magmoms:R:1 pbc="T T T"
Si       1.19684259       0.67048011      -1.87875934       0.00000000
Si      -2.03455584      -0.40537665      -1.15929914       0.00000000
Si      -0.53649486       1.92604815       1.36599374       0.00000000
Si       1.18987047      -1.97415252       0.86672925       0.00000000
Si      -0.08640216      -2.35942731       2.84838700       0.00000000
Si       1.77196104      -1.31390253      -2.99593228       0.00000000
Si       3.03981174       1.92676491      -1.02946758       0.00000000
Si      -2.35649511       1.34082990      -2.70353504       0.00000000
Si      -3.83290668      -0.14424795       0.41729106       0.00000000
Si      -1.69385049      -2.28112128      -2.66275550       0.00000000
