10
Lattice="16.28999089631971 0.0 0.0 0.0 16.28999089631971 0.0 0.0 0.0 34.529650657227435" Properties=species:S:1:pos:R:3:initial_magmoms:R:1 pbc="T T T"
Si       2.16723789      -0.76805721       0.21802034       0.00000000
Si      -0.57511845       1.98438264       1.11717294       0.00000000
Si       0.42152004       0.83694762      -2.21728823       0.00000000
Si      -1.34210052      -1.96475319       0.53503724       0.00000000
Si      -1.98262332       2.66830200      -0.70958472       0.00000000
Si       0.82849311      -1.23808887      -3.18225438       0.00000000
Si       2.31458094      -2.22216777      -1.59775689       0.00000000
Si      -3.46581153      -0.96721875       0.33317679       0.00000000
Si      -1.77196104       1.31390253       2.99593228       0.00000000
Si      -3.16390896      -0.81920781      -2.06380384       0.00000000
