10
Lattice="16.28999089631971 0.0 0.0 0.0 16.28999089631971 0.0 0.0 0.0 34.529650657227435" Properties=species:S:1:pos:R:3:initial_magmoms:R:1 pbc="T T T"
Si      -1.66653216      -1.24766739      -0.99970300       0.00000000
Si      -0.88262478       0.47773683       2.10570218       0.00000000
Si       2.20856562      -0.68413113      -0.49657118       0.00000000
Si       0.31495086       1.99855494      -1.28457278       0.00000000
Si      -0.53142867      -1.26757377      -3.02956418       0.00000000
Si       0.94683996       0.64638720      -3.18404993       0.00000000
Si       3.44349423       1.23582456       0.33590463       0.00000000
Si       0.88174512       1.53881856       3.27653216       0.00000000
Si       2.40587010      -2.96227134      -0.14499008       0.00000000
Si      -3.58120989       0.30784842      -1.42248428       0.00000000
