10
Lattice="16.28999089631971 0.0 0.0 0.0 16.28999089631971 0.0 0.0 0.0 34.529650657227435" Properties=species:S:1:pos:R:3:initial_magmoms:R:1 pbc="T T T"
Si       1.34830701       1.34680833       1.37582089       0.00000000
Si      -1.36500426      -1.37000529       1.36477139       0.00000000
Si       1.31800761      -1.34249148      -1.44104398       0.00000000
Si      -1.30909698       1.31556411      -1.50868070       0.00000000
Si      -0.44636229      -2.40357321      -2.61187396       0.00000000
Si      -2.22065280      -0.65122533      -2.82569553       0.00000000
Si       2.68231140       2.69742057       0.00080799       0.00000000
Si      -2.71821456       2.69623704      -0.02140494       0.00000000
Si       2.69280216      -2.73518874      -0.01294517       0.00000000
Si      -0.00638568       2.69983967       2.72990189       0.00000000
