10
Lattice="16.28999089631971 0.0 0.0 0.0 16.28999089631971 0.0 0.0 0.0 34.529650657227435" Properties=species:S:1:pos:R:3:initial_magmoms:R:1 pbc="T T T"
Si       1.42369713      -1.20589983      -1.42642067       0.00000000
Si      -0.79040709      -1.86364116       1.32628462       0.00000000
Si      -1.29295359       1.51145136      -1.40570286       0.00000000
Si       1.87383870       0.96980886       1.28771498       0.00000000
Si       0.53331831       1.80825516       3.11982474       0.00000000
Si      -1.78795782       0.75694743       3.12655803       0.00000000
Si       2.75033844      -2.53511496       0.01253427       0.00000000
Si      -2.64427425      -2.70000234       0.09060585       0.00000000
Si       0.06825510      -2.56021785      -2.78205551       0.00000000
Si      -2.64893319       0.15561837      -2.77773930       0.00000000
