10
Lattice="16.28999089631971 0.0 0.0 0.0 16.28999089631971 0.0 0.0 0.0 34.529650657227435" Properties=species:S:1:pos:R:3:initial_magmoms:R:1 pbc="T T T"
Si       0.34151985       2.21869800      -0.63631276       0.00000000
Si      -2.14583283      -0.01356957       1.00198196       0.00000000
Si      -0.71949672      -1.28169720      -1.89695648       0.00000000
Si       1.40750487      -0.68391936       1.82675766       0.00000000
Si       2.40414336      -1.83135438      -1.50770351       0.00000000
Si       1.98262332      -2.66830200       0.70958472       0.00000000
Si      -1.14104934       2.07700758      -2.47294590       0.00000000
Si      -2.53399095       0.11363904      -2.44715224       0.00000000
Si      -0.37190070       3.32453017       1.29089171       0.00000000
Si      -1.82389356      -1.75977612       2.54621786       0.00000000
