10
Lattice="16.28999089631971 0.0 0.0 0.0 16.28999089631971 0.0 0.0 0.0 34.529650657227435" Properties=species:S:1:pos:R:3:initial_magmoms:R:1 pbc="T T T"
Si      -0.56700603      -2.24862273       0.18411220       0.00000000
Si       0.49223493       0.44849628      -2.24038858       0.00000000
Si       1.54344492       0.66746646       1.70652535       0.00000000
Si      -1.85934060       1.31491251       0.77059864       0.00000000
Si      -0.55179117      -2.11967109       2.61686557       0.00000000
Si      -0.83546523       3.38029133      -0.01246521       0.00000000
Si       0.00977400       0.07820829       3.48539036       0.00000000
Si       2.02986432       2.22835797      -2.10302955       0.00000000
Si      -1.39248549       1.60524918      -3.06823741       0.00000000
Si      -2.53430046      -2.66031990      -1.06482596       0.00000000
