10
Lattice="16.28999089631971 0.0 0.0 0.0 16.28999089631971 0.0 0.0 0.0 34.529650657227435" Properties=species:S:1:pos:R:3:initial_magmoms:R:1 pbc="T T T"
Si      -1.06903125      -1.75681201       1.18723192       0.00000000
Si       1.80871521       1.05629736       1.15392460       0.00000000
Si      -1.72936269       1.84543546      -0.26505635       0.00000000
Si       1.69043515      -1.24895497      -1.57525014       0.00000000
Si       2.17802906       1.07156760      -2.01923264       0.00000000
Si      -2.28982014      -0.27216565       2.55177887       0.00000000
Si       0.03551220       2.04472732      -2.89262611       0.00000000
Si       0.46180116       2.45829784       2.54486603       0.00000000
Si      -2.29912173      -3.03148822      -0.48846331       0.00000000
Si      -3.63205098       1.02549785       0.99558189       0.00000000
