10
Lattice="16.28999089631971 0.0 0.0 0.0 16.28999089631971 0.0 0.0 0.0 34.529650657227435" Properties=species:S:1:pos:R:3:initial_magmoms:R:1 pbc="T T T"
Si      -0.39322431      -1.02944655       2.07526769       0.00000000
Si       0.58174848      -1.70321724      -1.51889112       0.00000000
Si       2.15449001       0.98381826      -0.12061214       0.00000000
Si      -1.56022362       1.88211402      -0.17634302       0.00000000
Si      -2.74406679      -1.53192789       1.78041884       0.00000000
Si       2.27430133       1.65988584      -2.40395562       0.00000000
Si       0.77195052      -3.06844793       1.95175506       0.00000000
Si       0.36720918      -3.78197504      -0.29146494       0.00000000
Si       2.48752277      -0.76704723      -2.84952648       0.00000000
Si      -3.43950318       1.07193087      -1.38446712       0.00000000
