10
Lattice="16.28999089631971 0.0 0.0 0.0 16.28999089631971 0.0 0.0 0.0 34.529650657227435" Properties=species:S:1:pos:R:3:initial_magmoms:R:1 pbc="T T T"
Si       1.35306532      -1.34990343       1.36340402       0.00000000
Si      -1.35334924       1.35392706       1.35939858       0.00000000
Si      -1.35731832      -1.35682668      -1.35684338       0.00000000
Si       1.35806635       1.35827649      -1.35722321       0.00000000
Si       2.71521883       2.71355562       0.00013812       0.00000000
Si      -2.71468519       0.00040725      -2.71458453       0.00000000
Si       0.00056200      -2.71474153      -2.71475718       0.00000000
Si      -2.71375666       2.71669959       0.00075965       0.00000000
Si       2.71575640       0.00047241      -2.71475718       0.00000000
Si       0.00024924       2.71577106      -2.71482624       0.00000000
