10
Lattice="16.28999089631971 0.0 0.0 0.0 16.28999089631971 0.0 0.0 0.0 34.529650657227435" Properties=species:S:1:pos:R:3:initial_magmoms:R:1 pbc="T T T"
Si       0.73458126       1.72066383      -1.40739482       0.00000000
Si      -1.99850607       0.91574235       1.02629085       0.00000000
Si      -0.07535754      -1.86984765      -1.55355891       0.00000000
Si       1.47763236      -0.49019868       1.96660282       0.00000000
Si       0.79206867      -2.80525203       1.90759162       0.00000000
Si      -1.11216717       3.12131061      -1.54136994       0.00000000
Si       0.61136370       0.83961918      -3.59654136       0.00000000
Si       0.89204040      -3.70834682      -0.31297693       0.00000000
Si       3.65598818      -0.76543452       0.93544329       0.00000000
Si      -1.37344248       2.62684395       2.48862237       0.00000000
