10
Lattice="16.28999089631971 0.0 0.0 0.0 16.28999089631971 0.0 0.0 0.0 34.529650657227435" Properties=species:S:1:pos:R:3:initial_magmoms:R:1 pbc="T T T"
Si       1.35713619       1.35485559       1.35787927       0.00000000
Si      -1.35692442       1.35710361      -1.35725774       0.00000000
Si       1.35817875      -1.35790182      -1.35725774       0.00000000
Si      -1.35917244      -1.35720135       1.35698150       0.00000000
Si      -2.71189404      -0.00177561       2.71479171       0.00000000
Si      -2.71396287       2.71414206       0.00013812       0.00000000
Si       2.71501482      -0.00205254      -2.71337599       0.00000000
Si       2.71550234       2.71428867       0.00020718       0.00000000
Si      -2.71467963      -2.71513575       0.00037983       0.00000000
Si      -2.71533123      -0.00229689      -2.71468812       0.00000000
