10
Lattice="16.28999089631971 0.0 0.0 0.0 16.28999089631971 0.0 0.0 0.0 34.529650657227435" Properties=species:S:1:pos:R:3:initial_magmoms:R:1 pbc="T T T"
Si      -1.67663196      -0.38481867      -1.57113451       0.00000000
Si       1.96797439       0.35429121      -1.24917987       0.00000000
Si       0.04109967      -1.90609290       1.38819632       0.00000000
Si      -0.13146030       2.06092935       1.21706728       0.00000000
Si      -0.56773908      -0.68978376       3.31260389       0.00000000
Si       0.94633497       1.11386133       3.12624726       0.00000000
Si      -2.16037980       1.89517860      -2.09422448       0.00000000
Si       3.24665306       1.59335748       0.30648535       0.00000000
Si       2.97584810      -1.74394224      -1.51899471       0.00000000
Si       0.50525064       3.76210287      -0.32558026       0.00000000
