10
Lattice="16.28999089631971 0.0 0.0 0.0 16.28999089631971 0.0 0.0 0.0 34.529650657227435" Properties=species:S:1:pos:R:3:initial_magmoms:R:1 pbc="T T T"
Si       0.40474134       0.71352711       2.24322001       0.00000000
Si       0.21453930       2.07875780      -1.22742618       0.00000000
Si       1.77547383      -1.52989164      -0.69808634       0.00000000
Si      -2.26088910      -1.15339716       0.47457578       0.00000000
Si       1.86746509      -2.69428455       1.31962040       0.00000000
Si      -0.76043349       2.75252849       2.36673264       0.00000000
Si      -0.36720918       3.78197504       0.29146494       0.00000000
Si      -0.23196960      -0.98764641       3.78586754       0.00000000
Si      -0.10050930      -3.04857576       2.56880027       0.00000000
Si      -0.95974164       2.11236407      -3.24796434       0.00000000
