10
Lattice="16.28999089631971 0.0 0.0 0.0 16.28999089631971 0.0 0.0 0.0 34.529650657227435" Properties=species:S:1:pos:R:3:initial_magmoms:R:1 pbc="T T T"
Si       1.34286231       1.11974202       1.62368867       0.00000000
Si       1.37064979      -1.26412029      -1.51115648       0.00000000
Si      -1.16105309      -1.58179158       1.38874880       0.00000000
Si      -1.34899082       1.43353629      -1.49119833       0.00000000
Si       2.31639669      -1.15525422       1.89612777       0.00000000
Si       0.67169150      -2.82237282       2.31255559       0.00000000
Si       2.57019489       2.69390988      -0.13255940       0.00000000
Si       3.21834141      -1.97066646      -0.17137075       0.00000000
Si      -2.75820614      -2.72163546      -0.03290678       0.00000000
Si       0.00698572      -2.63564055      -2.88212249       0.00000000
