10
Lattice="16.28999089631971 0.0 0.0 0.0 16.28999089631971 0.0 0.0 0.0 34.529650657227435" Properties=species:S:1:pos:R:3:initial_magmoms:R:1 pbc="T T T"
Si       1.35865116       1.35633612       1.35691244       0.00000000
Si      -1.35703193       1.35742429      -1.35770662       0.00000000
Si       1.35752715      -1.35724949      -1.35763756       0.00000000
Si      -1.35924249      -1.35777077       1.35632544       0.00000000
Si       2.71111212       0.00079894       2.71368676       0.00000000
Si      -2.71273202      -0.00137191       2.71413565       0.00000000
Si      -2.71381866      -0.00054553      -2.71455000       0.00000000
Si       2.71498914      -2.71415762       0.00013812       0.00000000
Si      -2.71461345      -2.71495583      -0.00017265       0.00000000
Si      -0.00079821       2.71603961      -2.71372129       0.00000000
