10
Lattice="16.28999089631971 0.0 0.0 0.0 16.28999089631971 0.0 0.0 0.0 34.529650657227435" Properties=species:S:1:pos:R:3:initial_magmoms:R:1 pbc="T T T"
Si       1.33000757       1.34540739       1.36785835       0.00000000
Si      -1.36001944       1.35335691      -1.35635997       0.00000000
Si       1.35490847      -1.36089918      -1.35815551       0.00000000
Si      -1.35395956      -1.36697535       1.39351389       0.00000000
Si       2.56522615      -0.10660176       2.75215281       0.00000000
Si      -0.16469182       2.57144166       2.80525945       0.00000000
Si       2.70431017      -2.71116099      -0.00279690       0.00000000
Si      -0.00165329       2.71278999      -2.71403206       0.00000000
Si       2.71230856      -0.00259011      -2.71458453       0.00000000
Si       2.71582720       2.71406061       0.00555928       0.00000000
