10
Lattice="16.28999089631971 0.0 0.0 0.0 16.28999089631971 0.0 0.0 0.0 34.529650657227435" Properties=species:S:1:pos:R:3:initial_magmoms:R:1 pbc="T T T"
Si      -0.50200893      -2.20897287       0.54242659       0.00000000
Si      -2.08133257       0.99670365       0.32312865       0.00000000
Si       1.08722718      -0.19627821      -2.09664156       0.00000000
Si       1.46394972       0.74947032       1.74633806       0.00000000
Si       3.33246159      -0.13253544       0.63786659       0.00000000
Si      -2.34860668       0.26344188       2.55744001       0.00000000
Si       3.06258516       0.90598464      -1.48639870       0.00000000
Si      -1.45659641      -3.15038826      -1.45438970       0.00000000
Si      -1.57425908      -2.05366401       2.73803018       0.00000000
Si       2.10826809      -2.31985890      -2.29318444       0.00000000
