10
Lattice="16.28999089631971 0.0 0.0 0.0 16.28999089631971 0.0 0.0 0.0 34.529650657227435" Properties=species:S:1:pos:R:3:initial_magmoms:R:1 pbc="T T T"
Si      -1.54943054       0.61470315       1.56933625       0.00000000
Si       0.35631117      -2.27871036      -0.07586168       0.00000000
Si       1.51480710       1.72071270      -0.64553218       0.00000000
Si       2.30329197      -0.03323160      -2.32571139       0.00000000
Si      -2.94776414       1.59251040      -0.18535527       0.00000000
Si       1.30807071      -2.23262595      -2.16846327       0.00000000
Si      -0.00555815       1.95732495       2.78618322       0.00000000
Si       1.29544596       3.32208486       1.27680361       0.00000000
Si       1.85808627      -2.91905397       1.55154414       0.00000000
Si      -1.84771673       2.41759890      -2.26670018       0.00000000
