10
Lattice="16.28999089631971 0.0 0.0 0.0 16.28999089631971 0.0 0.0 0.0 34.529650657227435" Properties=species:S:1:pos:R:3:initial_magmoms:R:1 pbc="T T T"
Si      -1.35348953       1.35639886       1.35781021       0.00000000
Si      -1.35537096      -1.35718506      -1.35649808       0.00000000
Si       1.35924249       1.35777077      -1.35632544       0.00000000
Si       1.36210953      -1.35591444       1.36309325       0.00000000
Si      -2.71279229       0.00022806      -2.71379035       0.00000000
Si      -2.71332986       2.71426816       0.00169195       0.00000000
Si       0.00189290      -2.71441899      -2.71389394       0.00000000
Si       0.00221055       2.71519506      -2.71403206       0.00000000
Si      -2.71373711      -2.71661814       0.00117401       0.00000000
Si       2.71676964       0.00052128      -2.71396300       0.00000000
