10
Lattice="16.28999089631971 0.0 0.0 0.0 16.28999089631971 0.0 0.0 0.0 34.529650657227435" Properties=species:S:1:pos:R:3:initial_magmoms:R:1 pbc="T T T"
Si      -0.83717568      -1.83524769      -1.24210129       0.00000000
Si      -0.05370813      -0.43694667       2.42474248       0.00000000
Si       2.01251547       0.92514168      -1.10336107       0.00000000
Si      -1.71085725       1.88980290       0.20248198       0.00000000
Si      -0.45048366       1.96923294       2.49200628       0.00000000
Si      -2.07239425      -0.38323854      -2.62639576       0.00000000
Si       0.67471551       2.34359343      -2.60446942       0.00000000
Si       2.23366851      -1.16836767       2.60170704       0.00000000
Si      -3.56709365       0.84279573      -1.18899466       0.00000000
Si      -0.75704517       3.66277392      -1.17570073       0.00000000
