10
Lattice="16.28999089631971 0.0 0.0 0.0 16.28999089631971 0.0 0.0 0.0 34.529650657227435" Properties=species:S:1:pos:R:3:initial_magmoms:R:1 pbc="T T T"
Si       0.95381208       1.77297102      -1.37818272       0.00000000
Si      -1.85623640      -1.04700717      -1.39147664       0.00000000
Si       1.71085725      -1.88980290      -0.20248198       0.00000000
Si       1.26037359       0.07943004       2.28952430       0.00000000
Si      -1.15644013       0.07690509       2.41493606       0.00000000
Si       1.65714912      -2.32674957       2.22226050       0.00000000
Si      -0.36153700      -2.27304144      -2.82887774       0.00000000
Si       2.38557276       0.45379053      -2.80695140       0.00000000
Si       2.31301710       3.14625942       0.02575913       0.00000000
Si       3.72337272      -0.96466122      -1.30584306       0.00000000
