10
Lattice="16.28999089631971 0.0 0.0 0.0 16.28999089631971 0.0 0.0 0.0 34.529650657227435" Properties=species:S:1:pos:R:3:initial_magmoms:R:1 pbc="T T T"
Si       0.09199126      -1.16439291       2.01770673       0.00000000
Si       2.41681372       0.00252495      -0.12541176       0.00000000
Si      -1.77547383       1.52989164       0.69808634       0.00000000
Si       1.15644013      -0.07690509      -2.41493606       0.00000000
Si       2.81358925      -2.40365466      -0.19267556       0.00000000
Si       1.37066992       0.07467336       3.57337195       0.00000000
Si       1.09986496      -3.26262636       1.74789189       0.00000000
Si      -1.37073249       2.24341875       2.94130635       0.00000000
Si      -2.46862962      -2.00327904      -2.36500615       0.00000000
Si      -1.56093453       3.60864944      -0.52933984       0.00000000
