10
Lattice="16.28999089631971 0.0 0.0 0.0 16.28999089631971 0.0 0.0 0.0 34.31420841018396" Properties=species:S:1:pos:R:3:initial_magmoms:R:1 pbc="T T T"
Si      -2.00098038      -1.23921288      -0.00789227       0.00000000
Si       0.31171159       1.77472287      -1.63370038       0.00000000
Si      -0.36800562       1.26781879       2.17253669       0.00000000
Si       1.60483460      -2.03760207      -0.19528227       0.00000000
Si      -1.47522063      -2.60084511      -1.85900759       0.00000000
Si       1.99976936       3.09150710      -0.20440985       0.00000000
Si      -1.78504014       2.72797946      -1.75424626       0.00000000
Si      -2.58887019      -1.77989427       2.26408705       0.00000000
Si       2.71292927      -1.52865360      -2.32008787       0.00000000
Si      -1.35770457      -0.33443370       3.62806528       0.00000000
