10
Lattice="16.28999089631971 0.0 0.0 0.0 16.28999089631971 0.0 0.0 0.0 34.31420841018396" Properties=species:S:1:pos:R:3:initial_magmoms:R:1 pbc="T T T"
Si      -1.34213310      -1.34272280       1.36975534       0.00000000
Si      -1.35726651       1.35526284      -1.35613259       0.00000000
Si       1.35716877      -1.35707103      -1.35585807       0.00000000
Si       1.35247725       1.35031068       1.38550557       0.00000000
Si      -2.55666663       0.06542064       2.84410044       0.00000000
Si      -2.70997182       2.71270854       0.00435791       0.00000000
Si      -2.71389771       0.00004887      -2.71271126       0.00000000
Si       0.00102627       2.71494027      -2.71257400       0.00000000
Si       0.00099369      -2.71469734      -2.71312303       0.00000000
Si       2.71585251       0.00009774      -2.71339755       0.00000000
