10
Lattice="16.28999089631971 0.0 0.0 0.0 16.28999089631971 0.0 0.0 0.0 34.31420841018396" Properties=species:S:1:pos:R:3:initial_magmoms:R:1 pbc="T T T"
Si      -0.75960270       0.49361632       2.14978636       0.00000000
Si      -1.86452082      -0.85818326      -1.14005590       0.00000000
Si       1.01089224       1.86758986      -1.05584878       0.00000000
Si       1.58446314      -1.91656804      -0.12641361       0.00000000
Si       2.22542577       0.45944642      -2.53019389       0.00000000
Si      -0.52465203      -2.27291179      -2.54065972       0.00000000
Si       3.53219328      -0.88151576      -1.04960359       0.00000000
Si      -3.11398500      -2.22694141       0.33061758       0.00000000
Si      -3.10583185       1.19536672       2.03733863       0.00000000
Si       2.13961005       3.27675631       0.54364031       0.00000000
