10
Lattice="16.28999089631971 0.0 0.0 0.0 16.28999089631971 0.0 0.0 0.0 34.31420841018396" Properties=species:S:1:pos:R:3:initial_magmoms:R:1 pbc="T T T"
Si      -1.69521885       0.36573331       1.51112995       0.00000000
Si       1.84472847       0.56052913       1.30524459       0.00000000
Si       0.11069055       0.62220307      -2.29188157       0.00000000
Si       0.22960755      -2.38567117      -0.25831751       0.00000000
Si       2.37693906      -1.60033027      -0.81908061       0.00000000
Si       1.19581632      -1.41916918      -2.86338504       0.00000000
Si      -3.33024615      -0.95963901       0.47785993       0.00000000
Si       0.40363362      -2.87459923       2.02395609       0.00000000
Si       1.97139951      -1.28157405       2.74270190       0.00000000
Si      -2.12708304       0.69948283      -3.04923089       0.00000000
