10
Lattice="16.28999089631971 0.0 0.0 0.0 16.28999089631971 0.0 0.0 0.0 34.31420841018396" Properties=species:S:1:pos:R:3:initial_magmoms:R:1 pbc="T T T"
Si      -0.28448856      -1.16850355       1.98998500       0.00000000
Si       1.63502730       1.32537232       1.03327002       0.00000000
Si      -1.46047995       1.79950906      -0.44457513       0.00000000
Si       0.01304829      -1.62079540      -1.83814454       0.00000000
Si      -3.42595804       0.46341955      -0.36503475       0.00000000
Si       3.33024615       0.95963901      -0.47785993       0.00000000
Si      -1.66602717      -2.91946678       1.26375869       0.00000000
Si      -3.06200361      -1.83593743      -0.45092326       0.00000000
Si      -0.42371919       2.89706410      -2.34510294       0.00000000
Si      -1.45200915       3.13344829       1.51082113       0.00000000
