10
Lattice="16.28999089631971 0.0 0.0 0.0 16.28999089631971 0.0 0.0 0.0 34.31420841018396" Properties=species:S:1:pos:R:3:initial_magmoms:R:1 pbc="T T T"
Si       0.75960270      -0.49361632      -2.14978636       0.00000000
Si       0.28093734      -1.58677373       1.73657443       0.00000000
Si       0.53339976       2.17420349       0.86986567       0.00000000
Si      -2.34622915       0.70175039      -0.11244772       0.00000000
Si      -1.60360389       2.07820652       1.69416204       0.00000000
Si      -1.10491812      -1.35179959      -3.28984226       0.00000000
Si       2.35387242       1.86018116       2.28148436       0.00000000
Si       2.41645860      -2.52353018       1.52928218       0.00000000
Si      -1.28464569      -3.37448720       1.49929155       0.00000000
Si       1.77049494       1.37397353      -3.20563514       0.00000000
