10
Lattice="16.28999089631971 0.0 0.0 0.0 16.28999089631971 0.0 0.0 0.0 34.31420841018396" Properties=species:S:1:pos:R:3:initial_magmoms:R:1 pbc="T T T"
Si      -1.27852065      -1.60830185       1.26877341       0.00000000
Si       1.53754794       1.37056967       1.28146624       0.00000000
Si      -1.13155227       0.81592450      -2.02642671       0.00000000
Si       2.06107596      -0.66397055      -1.38073589       0.00000000
Si       1.18641699       1.22018854      -2.64566126       0.00000000
Si      -2.47785561      -0.01258232       2.69992376       0.00000000
Si       0.24532740      -2.71558202       2.71433574       0.00000000
Si       0.23242572       2.73657414       2.70350960       0.00000000
Si       3.03601617      -2.59552472      -0.19089005       0.00000000
Si       2.95091721       0.00312421       2.71639459       0.00000000
