10
Lattice="16.28999089631971 0.0 0.0 0.0 16.28999089631971 0.0 0.0 0.0 34.31420841018396" Properties=species:S:1:pos:R:3:initial_magmoms:R:1 pbc="T T T"
Si      -1.35806472       1.35700587      -1.36004441       0.00000000
Si       1.35614250      -1.35953082      -1.35956401       0.00000000
Si       1.38663738       1.33304328       1.36917199       0.00000000
Si      -1.36288656      -1.35431802       1.37857409       0.00000000
Si      -0.11756493       2.59286301       2.60987152       0.00000000
Si      -2.71138905       2.71435383      -0.00209317       0.00000000
Si       2.71368594      -2.71627605       0.00449516       0.00000000
Si      -0.00047241       2.71358820      -2.71672603       0.00000000
Si       2.71554300       2.71555929       0.00058334       0.00000000
Si      -2.71474479      -0.00210141      -2.71693191       0.00000000
