10
Lattice="16.28999089631971 0.0 0.0 0.0 16.28999089631971 0.0 0.0 0.0 34.31420841018396" Properties=species:S:1:pos:R:3:initial_magmoms:R:1 pbc="T T T"
Si      -1.53161838      -1.58998545      -0.72684397       0.00000000
Si      -1.53539766       1.78204455      -0.21429235       0.00000000
Si       2.02219173       0.11627802      -1.30672010       0.00000000
Si       0.59246730      -0.87430059       2.17308572       0.00000000
Si       0.89381601      -1.32009273      -3.03155906       0.00000000
Si      -1.15274556       3.03168303       1.65573011       0.00000000
Si      -0.27549648      -3.09220038      -1.92859685       0.00000000
Si       1.47838266       0.90808605       3.40325078       0.00000000
Si      -2.95639065      -2.41505766       0.85459584       0.00000000
Si      -1.22513832       3.14502885      -2.14975204       0.00000000
