10
Lattice="16.28999089631971 0.0 0.0 0.0 16.28999089631971 0.0 0.0 0.0 34.31420841018396" Properties=species:S:1:pos:R:3:initial_magmoms:R:1 pbc="T T T"
Si       0.36395444      -2.29935698      -0.08588851       0.00000000
Si       1.96547809       1.33608951      -0.07954038       0.00000000
Si      -1.48328499       0.50133615      -1.80719311       0.00000000
Si      -0.64128680      -0.07950986       2.31518094       0.00000000
Si       3.42595804      -0.46341955       0.36503475       0.00000000
Si      -2.73803853       0.87374673       2.19463505       0.00000000
Si       1.25813372      -2.60494109      -2.22019915       0.00000000
Si      -2.14961115       2.75286339      -1.32271053       0.00000000
Si      -0.11573719       0.76295844      -3.69420111       0.00000000
Si      -1.69218795      -3.38526467       0.13488923       0.00000000
