10
Lattice="16.28999089631971 0.0 0.0 0.0 16.28999089631971 0.0 0.0 0.0 34.31420841018396" Properties=species:S:1:pos:R:3:initial_magmoms:R:1 pbc="T T T"
Si      -2.01813552      -0.29610333       1.12914397       0.00000000
Si      -0.02647125       0.55594512      -2.31542113       0.00000000
Si       0.89096526       1.91878281       1.16702688       0.00000000
Si       1.42524468      -1.76109887       0.85545369       0.00000000
Si      -1.48592493      -2.45696273      -0.99518123       0.00000000
Si       2.93288418      -0.47910519       2.13135962       0.00000000
Si       3.17562147       1.53293787       0.98684287       0.00000000
Si      -2.13860007       1.38209247       2.73515277       0.00000000
Si       0.13931208       1.61852553       3.38190733       0.00000000
Si       1.61888391       2.28113757      -2.50778669       0.00000000
