10
Lattice="16.28999089631971 0.0 0.0 0.0 16.28999089631971 0.0 0.0 0.0 34.31420841018396" Properties=species:S:1:pos:R:3:initial_magmoms:R:1 pbc="T T T"
Si      -1.31181741       1.38842928       1.38599626       0.00000000
Si       1.40245497      -1.36656810       1.37215047       0.00000000
Si      -1.91316276      -0.79019532      -1.27747408       0.00000000
Si       1.34876313       0.01433520      -2.29740071       0.00000000
Si      -0.62908722      -0.84318669      -3.24251748       0.00000000
Si       2.64095109       2.56106493       0.00691775       0.00000000
Si      -2.65996152      -2.68402185      -0.04973847       0.00000000
Si      -2.53881279       2.83301019      -0.12920679       0.00000000
Si      -2.67610491       0.00794952       2.75205596       0.00000000
Si       0.04425993      -2.71129131       2.75651680       0.00000000
