10
Lattice="16.28999089631971 0.0 0.0 0.0 16.28999089631971 0.0 0.0 0.0 34.31420841018396" Properties=species:S:1:pos:R:3:initial_magmoms:R:1 pbc="T T T"
Si       1.25999892      -1.33613838      -1.59077328       0.00000000
Si      -0.73143729      -1.95468597       1.29845037       0.00000000
Si       1.58039064       1.45551150       1.33286754       0.00000000
Si      -1.44375012       1.36052451      -1.58487123       0.00000000
Si      -2.68253946       2.68724727      -0.08077569       0.00000000
Si       2.57245164      -2.78668143      -0.22901315       0.00000000
Si      -2.69835705      -2.70154989       0.01715711       0.00000000
Si       2.70472644       2.80989468      -0.22166991       0.00000000
Si       2.60960913       0.01029528      -2.96996503       0.00000000
Si      -0.10412568      -2.70342324      -2.96677380       0.00000000
