10
Lattice="16.28999089631971 0.0 0.0 0.0 16.28999089631971 0.0 0.0 0.0 34.31420841018396" Properties=species:S:1:pos:R:3:initial_magmoms:R:1 pbc="T T T"
Si       1.49705100       0.09096336       1.78485455       0.00000000
Si      -1.27521378      -1.96186986      -0.30323483       0.00000000
Si       1.36897902      -0.41585112      -1.88323344       0.00000000
Si      -1.08805797       2.12594274      -0.03925548       0.00000000
Si      -0.48255867      -2.67227676      -2.44159455       0.00000000
Si       3.10863699       1.63028691       1.02551501       0.00000000
Si      -0.48754341      -0.50334471      -3.63349924       0.00000000
Si       1.77236829      -3.25291752       0.77560449       0.00000000
Si       1.94828400      -2.86684452      -1.53913036       0.00000000
Si      -0.77121747       2.99871207      -2.19274777       0.00000000
