10
Lattice="16.28999089631971 0.0 0.0 0.0 16.28999089631971 0.0 0.0 0.0 34.31420841018396" Properties=species:S:1:pos:R:3:initial_magmoms:R:1 pbc="T T T"
Si       2.02860999      -1.25373704       0.49532588       0.00000000
Si       0.92717793       1.43275437      -1.86861558       0.00000000
Si      -1.68805777      -1.31678423      -1.42929052       0.00000000
Si       0.18122625       1.12798476       2.31404857       0.00000000
Si      -1.99976936      -3.09150710       0.20440985       0.00000000
Si       2.09469852      -2.86919747      -1.38945170       0.00000000
Si      -2.36777498      -1.82368831       2.37694654       0.00000000
Si      -0.65560734      -0.70304219       3.71844896       0.00000000
Si       0.91870713       0.09881514      -3.82401184       0.00000000
Si      -0.25708878       3.48920397      -1.98205841       0.00000000
