10
Lattice="16.28999089631971 0.0 0.0 0.0 16.28999089631971 0.0 0.0 0.0 34.31420841018396" Properties=species:S:1:pos:R:3:initial_magmoms:R:1 pbc="T T T"
Si      -0.43427511       2.26758429      -0.29355822       0.00000000
Si       1.07572644      -0.42815007      -2.05003490       0.00000000
Si       1.79097147      -0.40340556       1.52722333       0.00000000
Si      -1.94308749      -1.38391695       0.37405939       0.00000000
Si       2.42235558      -2.55832821       0.59518028       0.00000000
Si      -2.69408907       2.52569934       0.19933135       0.00000000
Si       2.53389321      -2.20784886      -1.77171220       0.00000000
Si       0.29274759       3.48886188       1.57365048       0.00000000
Si      -1.31450526      -3.61152558      -0.19569404       0.00000000
Si      -2.63568942      -0.98546355       2.63217577       0.00000000
