10
Lattice="16.28999089631971 0.0 0.0 0.0 16.28999089631971 0.0 0.0 0.0 34.31420841018396" Properties=species:S:1:pos:R:3:initial_magmoms:R:1 pbc="T T T"
Si       1.36050822       1.34961021       1.39770428       0.00000000
Si      -1.35405738      -1.36660068       1.39640033       0.00000000
Si       1.49402106      -1.25250552      -1.48808795       0.00000000
Si      -1.41201720       1.38800574      -1.51804427       0.00000000
Si       2.72391606       2.69011431       0.04744971       0.00000000
Si      -2.71018359       2.70474273       0.02190620       0.00000000
Si       2.72101644      -2.69708643       0.02711510       0.00000000
Si      -2.70611109      -2.72295495       0.02825433       0.00000000
Si       0.00158013       2.70788670       2.75768006       0.00000000
Si      -2.71526607      -0.00659745       2.75764574       0.00000000
