10
Lattice="16.28999089631971 0.0 0.0 0.0 16.28999089631971 0.0 0.0 0.0 34.31420841018396" Properties=species:S:1:pos:R:3:initial_magmoms:R:1 pbc="T T T"
Si       1.55634660       1.28630727      -1.28707319       0.00000000
Si      -1.30541544       1.35783666       1.50606174       0.00000000
Si      -1.18115532      -1.26962631      -1.69527524       0.00000000
Si       1.39404933      -1.33253829       1.47910105       0.00000000
Si      -0.24363324       2.21066703      -2.73379534       0.00000000
Si      -2.13363162       0.64985697      -2.78495785       0.00000000
Si      -2.53531044      -2.58478317      -0.02947592       0.00000000
Si      -2.67573024       2.64662001       0.17384960       0.00000000
Si       2.64445344      -2.85672843       0.10664862       0.00000000
Si       2.78751222       2.73176784       0.07690505       0.00000000
