10
Lattice="16.28999089631971 0.0 0.0 0.0 16.28999089631971 0.0 0.0 0.0 34.31420841018396" Properties=species:S:1:pos:R:3:initial_magmoms:R:1 pbc="T T T"
Si       1.35769005       1.35596331      -1.35702476       0.00000000
Si      -1.35694071      -1.35814617      -1.35699044       0.00000000
Si      -1.35738054       1.35753292       1.35757379       0.00000000
Si       1.35814617      -1.35809730       1.35791693       0.00000000
Si      -2.71443528       2.71437731       0.00024020       0.00000000
Si      -0.00120546       2.71515923       2.71483874       0.00000000
Si       2.71588509       2.71417694      -0.00010294       0.00000000
Si      -2.71471221      -2.71539639       0.00037746       0.00000000
Si       2.71495656      -2.71521720       0.00037746       0.00000000
Si      -2.71480995      -0.00079821       2.71545640       0.00000000
