10
Lattice="16.28999089631971 0.0 0.0 0.0 16.28999089631971 0.0 0.0 0.0 34.31420841018396" Properties=species:S:1:pos:R:3:initial_magmoms:R:1 pbc="T T T"
Si       1.36029645       1.33639806       1.37318676       0.00000000
Si       1.35583299      -1.35754344      -1.36018167       0.00000000
Si      -1.36112724       1.35792530      -1.36100521       0.00000000
Si      -1.36614456      -1.36085031       1.38667225       0.00000000
Si       2.58725925      -0.19243377       2.81603140       0.00000000
Si       2.71290402      -2.71474479      -0.00065197       0.00000000
Si      -2.71642266      -2.71288773      -0.00041177       0.00000000
Si       2.71306692      -0.00013792      -2.71840742       0.00000000
Si       2.71446786       2.71717919      -0.00120100       0.00000000
Si      -0.00177561      -2.71533123      -2.71792702       0.00000000
