10
Lattice="16.28999089631971 0.0 0.0 0.0 16.28999089631971 0.0 0.0 0.0 34.31420841018396" Properties=species:S:1:pos:R:3:initial_magmoms:R:1 pbc="T T T"
Si      -0.54509598       2.33154765       0.04392221       0.00000000
Si      -1.96025715      -1.05785631       0.88993949       0.00000000
Si       2.19071178      -0.02138877       1.01333345       0.00000000
Si       0.43152210      -0.77903667      -2.44842308       0.00000000
Si      -1.37047770      -1.80198351       3.01282350       0.00000000
Si       2.73010626       2.23976555       1.35784830       0.00000000
Si       1.55662353       3.43943217      -0.34986786       0.00000000
Si      -1.13790537       2.87454710       2.32924977       0.00000000
Si      -2.84617251      -2.84024295      -0.34022557       0.00000000
Si       1.55729142      -2.93602815      -2.33806853       0.00000000
