10
Lattice="16.28999089631971 0.0 0.0 0.0 16.28999089631971 0.0 0.0 0.0 34.31420841018396" Properties=species:S:1:pos:R:3:initial_magmoms:R:1 pbc="T T T"
Si      -2.11985028       0.99089791       0.15894350       0.00000000
Si      -0.41142024      -2.07586728      -1.06442734       0.00000000
Si       1.19685888       1.36800555      -1.55220408       0.00000000
Si       0.10068849      -0.93351474       2.29531300       0.00000000
Si       2.48855814      -1.31719311       1.47005582       0.00000000
Si      -2.43221103      -2.49525333      -0.01653946       0.00000000
Si      -0.43463349      -1.26317547      -3.22944922       0.00000000
Si       1.79621685      -0.40511601      -3.04813284       0.00000000
Si      -3.68761617      -0.60212727      -0.55980231       0.00000000
Si       2.70449838       2.64999923      -0.27629816       0.00000000
