10
Lattice="16.28999089631971 0.0 0.0 0.0 16.28999089631971 0.0 0.0 0.0 34.31420841018396" Properties=species:S:1:pos:R:3:initial_magmoms:R:1 pbc="T T T"
Si      -0.44414685       0.10169847       2.24071906       0.00000000
Si      -2.02830048      -0.98903106      -0.52541945       0.00000000
Si       1.32175987       1.87365951      -0.62571994       0.00000000
Si       2.55063348      -1.37516922      -0.27334714       0.00000000
Si      -0.43227144      -2.31861760      -1.82249726       0.00000000
Si       2.37153145       0.33321195      -2.05586832       0.00000000
Si       3.29325875       0.00128691       1.53326263       0.00000000
Si       0.89274087      -0.99864216      -3.43691304       0.00000000
Si      -0.15152958       3.04955316      -2.12147712       0.00000000
Si       1.22906211      -3.49313705      -0.44056037       0.00000000
