10
Lattice="16.28999089631971 0.0 0.0 0.0 16.28999089631971 0.0 0.0 0.0 34.31420841018396" Properties=species:S:1:pos:R:3:initial_magmoms:R:1 pbc="T T T"
Si       1.35754018      -1.35697329       1.35685319       0.00000000
Si       1.35771937       1.35778779      -1.35671593       0.00000000
Si      -1.35745309       1.35795069       1.35719633       0.00000000
Si      -1.35920119      -1.35711990      -1.35723064       0.00000000
Si      -2.71151352       0.00138465      -2.71614268       0.00000000
Si       2.71467637       0.00065160       2.71411815       0.00000000
Si      -0.00119080      -2.71410948       2.71473580       0.00000000
Si       2.71092967       0.00017919      -2.71802997       0.00000000
Si       2.71477411      -2.71461447      -0.00092648       0.00000000
Si      -2.71573263      -0.00016290       2.71380932       0.00000000
