10
Lattice="16.28999089631971 0.0 0.0 0.0 16.28999089631971 0.0 0.0 0.0 34.31420841018396" Properties=species:S:1:pos:R:3:initial_magmoms:R:1 pbc="T T T"
Si      -1.32947577       1.78082606      -0.64147017       0.00000000
Si      -1.07510742      -0.61715154       1.96030319       0.00000000
Si       2.14171146       1.02563795       0.20029215       0.00000000
Si       0.07726347      -1.41196768      -1.91823395       0.00000000
Si      -0.14662629       3.34500815       0.64610259       0.00000000
Si       2.73261492       0.56673236      -1.99015657       0.00000000
Si       0.71438166      -1.76901648       2.93022915       0.00000000
Si      -2.81049741      -1.86424782       0.95002370       0.00000000
Si       2.40482754      -1.73817951      -1.90467983       0.00000000
Si      -1.09621926      -0.21230105      -3.62595011       0.00000000
