10
Lattice="16.28999089631971 0.0 0.0 0.0 16.28999089631971 0.0 0.0 0.0 34.31420841018396" Properties=species:S:1:pos:R:3:initial_magmoms:R:1 pbc="T T T"
Si       1.35650088       1.35687555      -1.35647573       0.00000000
Si      -1.35715248       1.35710361       1.35781399       0.00000000
Si      -1.35658233      -1.35785295      -1.35815713       0.00000000
Si       1.35746199      -1.35782037       1.35747084       0.00000000
Si       0.00117288       2.71321353      -2.71418677       0.00000000
Si       2.71459818      -0.00112401       2.71425540       0.00000000
Si       2.71521720       2.71406061      -0.00037746       0.00000000
Si      -0.00057015       2.71554300       2.71384363       0.00000000
Si      -2.71474479       2.71472850       0.00061766       0.00000000
Si      -2.71489140      -0.00128691       2.71480443       0.00000000
