10
Lattice="16.28999089631971 0.0 0.0 0.0 16.28999089631971 0.0 0.0 0.0 34.31420841018396" Properties=species:S:1:pos:R:3:initial_magmoms:R:1 pbc="T T T"
Si      -1.35298364       1.27656585       1.41268244       0.00000000
Si      -1.35710102      -1.33867962      -1.35784830       0.00000000
Si       1.35727628       1.37096640      -1.35685319       0.00000000
Si       1.22127107      -1.51857009       1.38636342       0.00000000
Si       2.21077454       0.16907391       2.74359407       0.00000000
Si      -2.59142690      -0.23806206       2.72952523       0.00000000
Si      -0.00321402      -2.69819415      -2.71504463       0.00000000
Si       0.26573225       2.18839860       3.13673217       0.00000000
Si       2.71265315       0.01656693      -2.71566229       0.00000000
Si      -2.71775585       0.01575243      -2.71597111       0.00000000
