10
Lattice="16.28999089631971 0.0 0.0 0.0 16.28999089631971 0.0 0.0 0.0 34.31420841018396" Properties=species:S:1:pos:R:3:initial_magmoms:R:1 pbc="T T T"
Si       1.35710102       1.33867962       1.35784830       0.00000000
Si       1.35388701      -1.35951453      -1.35719633       0.00000000
Si      -1.36065483       1.35443205      -1.35812281       0.00000000
Si      -1.35940050      -1.38005622       1.36999554       0.00000000
Si       2.57837210      -0.17989047       2.74421172       0.00000000
Si       0.00411738       2.61524547       2.77053074       0.00000000
Si       2.71437731       2.70964602       0.00099511       0.00000000
Si      -0.00237528       2.71254564      -2.71473580       0.00000000
Si       2.71261799      -0.00237834      -2.71507894       0.00000000
Si      -2.71599912      -2.71511946       0.00216180       0.00000000
