10
Lattice="16.28999089631971 0.0 0.0 0.0 16.28999089631971 0.0 0.0 0.0 34.31420841018396" Properties=species:S:1:pos:R:3:initial_magmoms:R:1 pbc="T T T"
Si      -1.46448729      -1.72851561       0.68710809       0.00000000
Si       1.67863563      -0.10091655       1.67350488       0.00000000
Si      -1.25877717       2.01973194       0.25464588       0.00000000
Si       0.90443709       0.38301048      -2.21038528       0.00000000
Si       2.80220580       1.65853377      -1.36471115       0.00000000
Si      -0.78231096       2.24784081       2.63269048       0.00000000
Si       0.27517068       0.31762242       3.59585654       0.00000000
Si      -0.82717362       3.35582145      -1.62673459       0.00000000
Si       2.59388928      -2.29532616       1.63853868       0.00000000
Si       3.30919688       1.60225182       1.12193799       0.00000000
