10
Lattice="16.28999089631971 0.0 0.0 0.0 16.28999089631971 0.0 0.0 0.0 34.31420841018396" Properties=species:S:1:pos:R:3:initial_magmoms:R:1 pbc="T T T"
Si      -0.03749958      -0.18710694       2.35392170       0.00000000
Si      -1.79097147       0.40340556      -1.52722333       0.00000000
Si       1.60924023       1.77463260      -0.14381093       0.00000000
Si       0.63138411      -2.15492265      -0.93204305       0.00000000
Si      -0.71524503      -0.02474451      -3.57725823       0.00000000
Si      -0.09653454      -2.51727741       2.74277053       0.00000000
Si       2.32940484       1.67236398      -2.40820681       0.00000000
Si       0.74292174      -1.80444330      -3.29893553       0.00000000
Si       2.01121227       0.72941733       3.18940451       0.00000000
Si      -2.22524658       2.67098985      -1.82078154       0.00000000
