10
Lattice="16.28999089631971 0.0 0.0 0.0 16.28999089631971 0.0 0.0 0.0 34.31420841018396" Properties=species:S:1:pos:R:3:initial_magmoms:R:1 pbc="T T T"
Si       1.76833719      -0.08636958       1.61029807       0.00000000
Si       0.81379953       0.44515683      -2.21426279       0.00000000
Si      -1.42065090       1.81687257       0.70361324       0.00000000
Si      -1.12128957      -2.10883824      -0.43235927       0.00000000
Si       0.04546539      -1.07191458       2.92379664       0.00000000
Si      -3.39850125       0.95935068      -0.24150353       0.00000000
Si      -0.84662388      -3.03051015       1.71047081       0.00000000
Si      -3.20631183      -1.17784845      -1.15357570       0.00000000
Si      -0.17000244      -1.26343611      -3.54864016       0.00000000
Si      -0.97060707       3.54546963      -0.84539963       0.00000000
