10
Lattice="16.28999089631971 0.0 0.0 0.0 16.28999089631971 0.0 0.0 0.0 34.31420841018396" Properties=species:S:1:pos:R:3:initial_magmoms:R:1 pbc="T T T"
Si       1.35594702       1.35485559       1.35867184       0.00000000
Si      -1.35795069      -1.35635427       1.35705907       0.00000000
Si      -1.35755973       1.35778779      -1.35651004       0.00000000
Si       1.35783666      -1.35783666      -1.35716202       0.00000000
Si      -2.71050939      -0.00503361       2.71428972       0.00000000
Si      -2.71425609      -0.00141723      -2.71377500       0.00000000
Si      -0.00087966      -2.71502172      -2.71326029       0.00000000
Si      -0.00188964       2.71487511      -2.71356912       0.00000000
Si      -2.71437012       2.71490769       0.00102943       0.00000000
Si      -2.71453302      -2.71479366       0.00102943       0.00000000
