10
Lattice="16.28999089631971 0.0 0.0 0.0 16.28999089631971 0.0 0.0 0.0 34.31420841018396" Properties=species:S:1:pos:R:3:initial_magmoms:R:1 pbc="T T T"
Si       0.94485258      -1.66540815      -1.42572184       0.00000000
Si      -0.90443709      -0.38301048       2.21038528       0.00000000
Si      -1.57079583       1.39106826      -1.20950789       0.00000000
Si       1.89776871       1.27552329       0.84567414       0.00000000
Si      -1.73161071       2.97281097       0.58365070       0.00000000
Si       2.18329584      -0.15078024      -2.74256464       0.00000000
Si       0.59383566       3.46929759       0.68861792       0.00000000
Si      -2.16321426       1.63672146       2.46503117       0.00000000
Si       2.41814203      -2.84130180       0.07003534       0.00000000
Si      -0.44646003       2.74545144      -2.76404535       0.00000000
