10
Lattice="16.28999089631971 0.0 0.0 0.0 16.28999089631971 0.0 0.0 0.0 34.31420841018396" Properties=species:S:1:pos:R:3:initial_magmoms:R:1 pbc="T T T"
Si       0.53939448       2.26115432       0.34451484       0.00000000
Si       0.17275545      -0.70195239       2.26782730       0.00000000
Si      -2.19071178       0.02138877      -1.01333345       0.00000000
Si       1.85955237      -0.91052955      -1.38907425       0.00000000
Si       1.15339716      -2.72552877       1.70449063       0.00000000
Si       2.86695855       1.93494249       0.35806896       0.00000000
Si      -2.73580776       2.35293642      -0.96941124       0.00000000
Si       2.79684639      -2.48414355       0.08019235       0.00000000
Si      -0.63408825       3.46082094      -1.36320132       0.00000000
Si      -1.97079678      -0.55638495       3.18442895       0.00000000
