10
Lattice="16.28999089631971 0.0 0.0 0.0 16.28999089631971 0.0 0.0 0.0 34.31420841018396" Properties=species:S:1:pos:R:3:initial_magmoms:R:1 pbc="T T T"
Si      -1.76674728      -1.39129632       0.79087432       0.00000000
Si       0.86293831       1.49662746       1.65072023       0.00000000
Si      -0.40799445       1.47297438      -1.84119851       0.00000000
Si       1.52840110      -1.43146746      -1.25185165       0.00000000
Si       2.63854831       2.20778370       0.20248826       0.00000000
Si       1.82341300       2.30384583      -2.07532448       0.00000000
Si      -1.28879868      -0.08975790      -3.39573596       0.00000000
Si      -3.66917493      -0.51017022      -0.33092641       0.00000000
Si       0.26712668      -3.38120127      -1.58061627       0.00000000
Si       3.38510272      -1.71051516       0.13351666       0.00000000
