10
Lattice="16.28999089631971 0.0 0.0 0.0 16.28999089631971 0.0 0.0 0.0 34.31420841018396" Properties=species:S:1:pos:R:3:initial_magmoms:R:1 pbc="T T T"
Si       1.18426671      -2.05644960       0.11344284       0.00000000
Si      -2.30118146      -0.13209561       0.62208263       0.00000000
Si      -0.30960774       0.91430883      -2.22527766       0.00000000
Si       1.51316181       1.95409953       0.68827478       0.00000000
Si      -2.07007523       2.55059046      -1.85540460       0.00000000
Si      -3.28498343      -1.84068855      -0.71229474       0.00000000
Si      -3.46189283       1.79185113      -0.08547674       0.00000000
Si       3.54112020      -1.63462005       0.04206924       0.00000000
Si       0.25708878      -3.48920397       1.98205841       0.00000000
Si       1.17579591      -3.39038883      -1.84195342       0.00000000
