10
Lattice="16.28999089631971 0.0 0.0 0.0 16.28999089631971 0.0 0.0 0.0 34.31420841018396" Properties=species:S:1:pos:R:3:initial_magmoms:R:1 pbc="T T T"
Si       0.52336512      -1.03272084      -1.99345074       0.00000000
Si       2.23435269      -0.12378771       0.76345725       0.00000000
Si      -1.46256507      -1.61375256       0.96368077       0.00000000
Si      -0.82277532       2.16222057       0.58286147       0.00000000
Si       1.80924885       1.03337244       2.78998690       0.00000000
Si       0.85788027       2.98354608       1.97004843       0.00000000
Si      -0.76914864       0.49788756      -3.59726342       0.00000000
Si      -1.27123902      -1.33625241       3.29663647       0.00000000
Si      -0.68201343      -3.74823126       0.28751891       0.00000000
Si       0.84991446      -3.40187328      -1.52849295       0.00000000
