10
Lattice="16.28999089631971 0.0 0.0 0.0 16.28999089631971 0.0 0.0 0.0 34.31420841018396" Properties=species:S:1:pos:R:3:initial_magmoms:R:1 pbc="T T T"
Si      -1.31531487       1.84720455       0.55245906       0.00000000
Si      -0.21308949      -2.14518123       0.91330748       0.00000000
Si       2.09769588       0.69255306       0.79708519       0.00000000
Si      -0.19132605      -0.27750015      -2.33295571       0.00000000
Si       1.03838976      -3.30571341      -0.80995303       0.00000000
Si       1.47367485       1.65884328       2.86012518       0.00000000
Si       1.27123902       1.33625241      -3.29663647       0.00000000
Si      -3.51600821       1.12384710       0.88794927       0.00000000
Si      -1.45567440       3.27697785      -1.30308279       0.00000000
Si      -0.59499225       2.75964003       2.59096438       0.00000000
