10
Lattice="16.28999089631971 0.0 0.0 0.0 16.28999089631971 0.0 0.0 0.0 34.31420841018396" Properties=species:S:1:pos:R:3:initial_magmoms:R:1 pbc="T T T"
Si       0.04961934       1.91132199      -1.33345088       0.00000000
Si       2.00795427      -0.02570562       1.19928225       0.00000000
Si      -1.10807838       0.59432436       1.97622500       0.00000000
Si      -0.82200969      -1.98876465      -1.00245584       0.00000000
Si       0.06758721       2.71047681       2.02234332       0.00000000
Si       1.50454440      -1.82259036       2.54542940       0.00000000
Si       0.67364037       0.94503177      -3.39649087       0.00000000
Si       0.98279199       3.61377360      -0.00483831       0.00000000
Si      -2.59761969      -2.69992089       0.44577613       0.00000000
Si      -0.77485014      -1.66013019       3.35932857       0.00000000
