10
Lattice="16.28999089631971 0.0 0.0 0.0 16.28999089631971 0.0 0.0 0.0 34.31420841018396" Properties=species:S:1:pos:R:3:initial_magmoms:R:1 pbc="T T T"
Si      -1.35418607      -1.33848414       1.38911199       0.00000000
Si       1.36376622       1.37426742       1.38544037       0.00000000
Si      -1.33791399       1.37920167      -1.50322739       0.00000000
Si       1.19933496      -1.59571953      -1.43115035       0.00000000
Si       2.47785561       0.01258232      -2.69992376       0.00000000
Si      -2.69250128       2.70935999       0.03160684       0.00000000
Si      -2.69875520      -2.70871749       0.00815649       0.00000000
Si       2.72318301      -2.70299970       0.01441198       0.00000000
Si       0.00576666      -2.69952993       2.75035740       0.00000000
Si       2.71028133       2.74915646       0.00358584       0.00000000
