10
Lattice="16.28999089631971 0.0 0.0 0.0 16.28999089631971 0.0 0.0 0.0 34.31420841018396" Properties=species:S:1:pos:R:3:initial_magmoms:R:1 pbc="T T T"
Si      -1.60956456      -1.10452716      -1.25940078       0.00000000
Si       2.06913951      -0.09529650      -1.12083993       0.00000000
Si       0.47426706      -1.21588560       1.97687697       0.00000000
Si      -0.89960385       2.15201393       0.50287501       0.00000000
Si       3.48366537       0.27601776       0.73250582       0.00000000
Si      -3.30682832      -1.66493574       0.36867206       0.00000000
Si      -0.58590243      -3.03077079      -2.20822349       0.00000000
Si      -2.26715165       1.89039164       2.38988301       0.00000000
Si      -2.17291400       0.29033667      -3.16511004       0.00000000
Si       2.65513968      -0.69515946       2.72396633       0.00000000
