10
Lattice="16.28999089631971 0.0 0.0 0.0 16.28999089631971 0.0 0.0 0.0 34.31420841018396" Properties=species:S:1:pos:R:3:initial_magmoms:R:1 pbc="T T T"
Si      -0.89417928       0.30558411       2.13431064       0.00000000
Si      -0.19948734      -2.33222301      -0.29105328       0.00000000
Si       2.18087262       0.52072614       0.74708936       0.00000000
Si      -0.47426706       1.21588560      -1.97687697       0.00000000
Si       2.80235241      -1.73056815       1.30672010       0.00000000
Si      -1.96493401      -2.67278175       1.26108218       0.00000000
Si       3.00939831       1.49190336      -1.24437115       0.00000000
Si      -1.25813372       2.60494109       2.22019915       0.00000000
Si       1.59487245       1.12058910      -3.09771690       0.00000000
Si      -2.08383162       0.11135844      -3.23627775       0.00000000
