10
Lattice="16.28999089631971 0.0 0.0 0.0 16.28999089631971 0.0 0.0 0.0 34.31420841018396" Properties=species:S:1:pos:R:3:initial_magmoms:R:1 pbc="T T T"
Si       0.73527358       1.36215351       1.78303589       0.00000000
Si       2.33871458      -0.70130405       0.11536443       0.00000000
Si      -0.20249773       1.71390348      -1.76968766       0.00000000
Si      -1.32136563      -2.12410916      -0.17129662       0.00000000
Si      -2.57028411       1.32752097       0.28834245       0.00000000
Si       2.87592620       1.47212730       0.98320556       0.00000000
Si      -2.98452252      -0.94827022      -1.55323351       0.00000000
Si      -1.65648027       0.37058121      -3.16806106       0.00000000
Si      -1.56869346       3.22006059      -0.39214299       0.00000000
Si      -0.00580738      -3.43110473      -1.70744165       0.00000000
