10
Lattice="16.28999089631971 0.0 0.0 0.0 16.28999089631971 0.0 0.0 0.0 34.31420841018396" Properties=species:S:1:pos:R:3:initial_magmoms:R:1 pbc="T T T"
Si      -1.00981710      -1.86981344       1.05598604       0.00000000
Si       1.21513626      -1.40798054      -1.47451667       0.00000000
Si       1.12749606       1.40981805       1.60127343       0.00000000
Si      -1.50172623       1.27928628      -1.46511458       0.00000000
Si       2.51960688      -2.75112590       0.00658833       0.00000000
Si       2.67765246       2.65127895       0.14538938       0.00000000
Si       2.55638970      -0.06582789      -2.84396318       0.00000000
Si      -0.15343551       2.64668517      -2.83936508       0.00000000
Si      -3.01184181       2.46001806      -0.10513879       0.00000000
Si      -1.77793947      -1.36841213       3.21198327       0.00000000
