10
Lattice="16.28999089631971 0.0 0.0 0.0 16.28999089631971 0.0 0.0 0.0 34.31420841018396" Properties=species:S:1:pos:R:3:initial_magmoms:R:1 pbc="T T T"
Si       2.25497583       0.66494819      -0.06039304       0.00000000
Si      -0.57432024      -1.94764431      -1.19591946       0.00000000
Si      -0.16532721      -1.15148685       2.09659931       0.00000000
Si      -1.53920952       1.72476419      -0.66315676       0.00000000
Si      -2.18295774      -0.31036899       2.87934115       0.00000000
Si      -1.19865078      -1.14418893      -3.24907695       0.00000000
Si       1.50153075      -0.12019953       3.36780418       0.00000000
Si       2.84734539       0.12160827      -2.34544608       0.00000000
Si      -2.66763411      -2.57547720      -0.08602577       0.00000000
Si       3.23512884      -0.42202065       1.83649746       0.00000000
