10
Lattice="16.28999089631971 0.0 0.0 0.0 16.28999089631971 0.0 0.0 0.0 34.31420841018396" Properties=species:S:1:pos:R:3:initial_magmoms:R:1 pbc="T T T"
Si      -0.33239745       0.47411068      -2.22157172       0.00000000
Si       1.27822743       1.91445619       0.59610676       0.00000000
Si       0.87475671      -1.88411836       1.26502831       0.00000000
Si      -2.31803442      -0.40398548       0.61957769       0.00000000
Si      -1.18653102      -1.22012354       2.64600440       0.00000000
Si      -2.25204363      -2.01991180      -1.26544008       0.00000000
Si       2.92967505      -0.58939012       1.37613778       0.00000000
Si      -1.06248267       2.70398362      -1.81594324       0.00000000
Si       1.97737794       1.26740110       2.66866593       0.00000000
Si       3.33425349      -1.17324995      -0.99065175       0.00000000
