10
Lattice="16.28999089631971 0.0 0.0 0.0 16.28999089631971 0.0 0.0 0.0 34.31420841018396" Properties=species:S:1:pos:R:3:initial_magmoms:R:1 pbc="T T T"
Si      -1.27847178      -1.60847273       1.26874596       0.00000000
Si       1.53779229       1.37066106       1.28116084       0.00000000
Si      -1.13150340       0.81613806      -2.02642671       0.00000000
Si       2.06128773      -0.66399482      -1.38097609       0.00000000
Si       1.18653102       1.22012354      -2.64600440       0.00000000
Si      -2.47772529      -0.01250885       2.70011592       0.00000000
Si       0.24539256      -2.71562258       2.71439064       0.00000000
Si       0.23260491       2.73632181       2.70366744       0.00000000
Si       3.03621165      -2.59551641      -0.19102730       0.00000000
Si       2.95108011       0.00304803       2.71643234       0.00000000
