10
Lattice="16.28999089631971 0.0 0.0 0.0 16.28999089631971 0.0 0.0 0.0 34.31420841018396" Properties=species:S:1:pos:R:3:initial_magmoms:R:1 pbc="T T T"
Si      -1.30596930       1.35451350       1.48776197       0.00000000
Si      -1.48727700      -0.87821019      -1.66616991       0.00000000
Si       1.38549708      -1.36498797       1.47863781       0.00000000
Si       1.83461238       1.11096171      -1.22928116       0.00000000
Si      -2.72078838      -2.55394620      -0.12960827       0.00000000
Si       3.51991062      -0.79847064      -1.17713242       0.00000000
Si      -2.61325809       2.79376758       0.11286979       0.00000000
Si       2.77312815      -2.69205282       0.05065809       0.00000000
Si      -2.67481800      -0.00218286       2.85656337       0.00000000
Si       0.04613328       2.71088406       2.85580845       0.00000000
