10
Lattice="16.28999089631971 0.0 0.0 0.0 16.28999089631971 0.0 0.0 0.0 34.31420841018396" Properties=species:S:1:pos:R:3:initial_magmoms:R:1 pbc="T T T"
Si       2.19703230      -0.62418393       0.48510024       0.00000000
Si      -0.73169793      -1.89928368      -1.17543387       0.00000000
Si      -1.01460636       0.16856892       2.11488879       0.00000000
Si      -0.07685622       2.05736184      -1.15453650       0.00000000
Si       0.03329676       3.41308080       0.86876761       0.00000000
Si      -1.65754008      -2.06138547       2.44358477       0.00000000
Si      -1.01079450      -3.41404191       0.65577920       0.00000000
Si       2.99025756      -1.33576371      -1.65301929       0.00000000
Si       0.74696166      -2.10800745      -3.05849573       0.00000000
Si      -3.23017668       0.95299758       1.74213333       0.00000000
