10
Lattice="16.28999089631971 0.0 0.0 0.0 16.28999089631971 0.0 0.0 0.0 34.31420841018396" Properties=species:S:1:pos:R:3:initial_magmoms:R:1 pbc="T T T"
Si      -0.74570733      -0.92216061      -2.01307848       0.00000000
Si      -0.12052971       2.27817279      -0.80724220       0.00000000
Si       2.21930073      -0.61840098       0.86928233       0.00000000
Si      -1.72902060      -0.74699424       1.60182246       0.00000000
Si       1.52681283      -0.22001274       3.12739870       0.00000000
Si       1.46831544       3.29113386       0.69451997       0.00000000
Si      -2.96127765      -0.13773195      -2.38583393       0.00000000
Si       1.41198462       2.18155680       2.81445295       0.00000000
Si      -1.38864105      -3.15211500      -1.68438249       0.00000000
Si      -0.73853973      -0.70281576       3.70573069       0.00000000
