10
Lattice="16.28999089631971 0.0 0.0 0.0 16.28999089631971 0.0 0.0 0.0 34.31420841018396" Properties=species:S:1:pos:R:3:initial_magmoms:R:1 pbc="T T T"
Si       1.43583318      -1.79108550       0.35343654       0.00000000
Si       1.20146895       1.83606219      -0.94360694       0.00000000
Si      -0.96080049       0.98824914       1.97008275       0.00000000
Si      -0.90487692      -1.00155807      -2.05861346       0.00000000
Si      -0.65334303       2.42489682      -2.22610120       0.00000000
Si      -2.08433808       2.86409151       0.82443363       0.00000000
Si       3.24470736      -1.35843939      -1.06439303       0.00000000
Si       2.90659212       0.74259594      -2.14412451       0.00000000
Si       0.15760575      -3.70554169      -0.24267022       0.00000000
Si      -0.32110848       0.63063477      -3.69221089       0.00000000
