10
Lattice="16.28999089631971 0.0 0.0 0.0 16.28999089631971 0.0 0.0 0.0 34.31420841018396" Properties=species:S:1:pos:R:3:initial_magmoms:R:1 pbc="T T T"
Si       2.14065261       0.10997379      -0.79983033       0.00000000
Si       0.00206883      -0.96044211       2.12089378       0.00000000
Si      -0.73527358      -1.36215351      -1.78303589       0.00000000
Si       1.60344099      -2.06345756      -1.66767146       0.00000000
Si      -2.28318101      -1.44089937       1.99719099       0.00000000
Si      -3.30555770      -0.03463254      -1.49469344       0.00000000
Si      -2.30396705       1.85790708      -2.17517889       0.00000000
Si      -0.93777132       0.35174997      -3.55272355       0.00000000
Si      -2.69621396       2.03416488       1.64694567       0.00000000
Si      -3.72567680       0.11520288       0.72670671       0.00000000
