10
Lattice="16.28999089631971 0.0 0.0 0.0 16.28999089631971 0.0 0.0 0.0 34.31420841018396" Properties=species:S:1:pos:R:3:initial_magmoms:R:1 pbc="T T T"
Si      -1.35687555      -1.35744570      -1.35795124       0.00000000
Si       1.35788553       1.35795069      -1.35760810       0.00000000
Si      -1.35614250       1.35842310       1.36052481       0.00000000
Si       1.35692442      -1.35711990       1.36354446       0.00000000
Si       0.03222162       2.69348634       2.71957411       0.00000000
Si      -2.71423980       0.00040725      -2.71525051       0.00000000
Si       0.00053757      -2.71459818      -2.71542209       0.00000000
Si      -2.71528236      -2.71484253      -0.00109806       0.00000000
Si       0.00068418       2.71533123      -2.71521620       0.00000000
Si       2.71575477       0.00058644      -2.71483874       0.00000000
