10
Lattice="16.28999089631971 0.0 0.0 0.0 16.28999089631971 0.0 0.0 0.0 34.31420841018396" Properties=species:S:1:pos:R:3:initial_magmoms:R:1 pbc="T T T"
Si      -1.33955928      -1.35853713      -1.37335833       0.00000000
Si       1.26600993      -1.45407798       1.37294656       0.00000000
Si       1.37112930       1.35946566      -1.37030436       0.00000000
Si      -1.51060428       1.12855491       1.50577693       0.00000000
Si       0.12329901       2.46097917       2.69538258       0.00000000
Si      -2.70670079       2.70203859       0.01056878       0.00000000
Si      -2.69851669      -2.73090447      -0.01640220       0.00000000
Si      -2.70297038       0.00052128      -2.73069192       0.00000000
Si       0.01198944      -2.71379997      -2.73192723       0.00000000
Si       0.01260846       2.71756296      -2.73182429       0.00000000
