10
Lattice="16.28999089631971 0.0 0.0 0.0 16.28999089631971 0.0 0.0 0.0 34.31420841018396" Properties=species:S:1:pos:R:3:initial_magmoms:R:1 pbc="T T T"
Si      -1.78168617       1.57964130       0.03757408       0.00000000
Si       1.58884515       1.01296107       1.50176217       0.00000000
Si       0.12052971      -2.27817279       0.80724220       0.00000000
Si       0.42272550       0.04417848      -2.45195745       0.00000000
Si      -0.62517762      -3.20033340      -1.20583627       0.00000000
Si      -0.79952949       3.25762533      -1.26828817       0.00000000
Si       2.77356798       0.09381411      -2.57133664       0.00000000
Si      -0.38885859       2.09937375      -3.30329343       0.00000000
Si       1.53251433      -0.09661599       3.62169515       0.00000000
Si      -2.84074794      -2.41590474      -1.57859173       0.00000000
