10
Lattice="16.28999089631971 0.0 0.0 0.0 16.28999089631971 0.0 0.0 0.0 34.31420841018396" Properties=species:S:1:pos:R:3:initial_magmoms:R:1 pbc="T T T"
Si      -0.36616662      -1.24310619      -1.84919372       0.00000000
Si       0.62433054      -0.80345538       2.05315749       0.00000000
Si      -2.13434838       0.93744063       0.20893933       0.00000000
Si       1.19865078       1.14418893       3.24907695       0.00000000
Si       1.15129575      -3.06092358      -1.62882776       0.00000000
Si      -1.46898333      -1.43128827       3.16305118       0.00000000
Si      -3.69967077      -0.86042151      -0.03170635       0.00000000
Si      -0.07418466       0.12041568      -3.79734968       0.00000000
Si       2.63164950      -2.12322231       1.75002561       0.00000000
Si      -2.42359362       2.52988980      -1.52121834       0.00000000
