10
Lattice="16.28999089631971 0.0 0.0 0.0 16.28999089631971 0.0 0.0 0.0 34.31420841018396" Properties=species:S:1:pos:R:3:initial_magmoms:R:1 pbc="T T T"
Si       1.21824765       1.32112063      -1.51562512       0.00000000
Si      -0.06087573       0.35118145       2.37704949       0.00000000
Si      -1.55600451      -1.31612188      -1.44946729       0.00000000
Si      -2.01275982       1.71168967       2.14879125       0.00000000
Si       2.30123943       2.86938739      -0.18059578       0.00000000
Si       2.55948480      -0.00902140      -2.92165059       0.00000000
Si       3.51746712       1.14657328       1.38409868       0.00000000
Si      -0.16638606      -2.70698002      -2.90864550       0.00000000
Si      -0.16658154       2.71937278      -2.91454755       0.00000000
Si      -2.86047513       0.02702348      -2.93057229       0.00000000
