10
Lattice="16.28999089631971 0.0 0.0 0.0 16.28999089631971 0.0 0.0 0.0 34.31420841018396" Properties=species:S:1:pos:R:3:initial_magmoms:R:1 pbc="T T T"
Si       0.54556839      -2.33108175      -0.04381927       0.00000000
Si       2.10271320       1.10805557      -0.39440773       0.00000000
Si      -0.59236956       0.54333992       2.28505304       0.00000000
Si      -0.67691466       1.54868215      -1.80372737       0.00000000
Si       3.27572352      -0.09101353       1.31365157       0.00000000
Si      -2.84734539      -0.12160827       2.34544608       0.00000000
Si       2.73614985      -2.35258455       0.96903379       0.00000000
Si      -0.38550285       3.68143412      -0.62650917       0.00000000
Si      -1.41434667      -3.38901951       0.84639474       0.00000000
Si       2.04377598       3.48756682       0.27537168       0.00000000
