10
Lattice="16.28999089631971 0.0 0.0 0.0 16.28999089631971 0.0 0.0 0.0 34.31420841018396" Properties=species:S:1:pos:R:3:initial_magmoms:R:1 pbc="T T T"
Si       0.36401634      -2.29943028      -0.08588851       0.00000000
Si       1.96555792       1.33606508      -0.07957469       0.00000000
Si      -1.48328662       0.50124167      -1.80719311       0.00000000
Si      -0.64144481      -0.07954896       2.31487211       0.00000000
Si       3.42600529      -0.46350100       0.36496612       0.00000000
Si      -2.73807274       0.87359197       2.19463505       0.00000000
Si       1.25811580      -2.60496552      -2.22023347       0.00000000
Si      -2.14951504       2.75288783      -1.32308799       0.00000000
Si      -0.11570135       0.76285093      -3.69420111       0.00000000
Si      -1.69215700      -3.38527281       0.13495786       0.00000000
