10
Lattice="16.28999089631971 0.0 0.0 0.0 16.28999089631971 0.0 0.0 0.0 34.31420841018396" Properties=species:S:1:pos:R:3:initial_magmoms:R:1 pbc="T T T"
Si       1.32910110      -1.78158517       0.64174468       0.00000000
Si       1.18201869       1.56284631       1.28918553       0.00000000
Si       0.17431929       0.38551914      -2.31490642       0.00000000
Si      -2.29459311      -0.29574495       0.49988967       0.00000000
Si      -3.04818480       1.29096621      -1.07866774       0.00000000
Si      -0.27528471       3.34251252       1.00887261       0.00000000
Si       0.25363530      -2.39863571       2.60194494       0.00000000
Si      -2.46182625      -2.55870777      -0.30522505       0.00000000
Si       0.23325651      -1.99399211      -2.98468583       0.00000000
Si       3.47074740      -0.75577455       0.84241429       0.00000000
