10
Lattice="16.28999089631971 0.0 0.0 0.0 16.28999089631971 0.0 0.0 0.0 34.31420841018396" Properties=species:S:1:pos:R:3:initial_magmoms:R:1 pbc="T T T"
Si      -1.31173596       1.38808719       1.38593450       0.00000000
Si       1.40255271      -1.36651923       1.37222253       0.00000000
Si      -1.91299986      -0.79052112      -1.27783095       0.00000000
Si       1.34899119       0.01436778      -2.29781249       0.00000000
Si      -0.62908722      -0.84323556      -3.24265474       0.00000000
Si       2.64099996       2.56106493       0.00663294       0.00000000
Si      -2.65978233      -2.68410330      -0.05004044       0.00000000
Si      -2.53873134       2.83287987      -0.12951562       0.00000000
Si      -2.67595830       0.00783549       2.75191870       0.00000000
Si       0.04435767      -2.71135647       2.75634523       0.00000000
