10
Lattice="16.28999089631971 0.0 0.0 0.0 16.28999089631971 0.0 0.0 0.0 34.31420841018396" Properties=species:S:1:pos:R:3:initial_magmoms:R:1 pbc="T T T"
Si       1.46404746       1.72670742      -0.68587278       0.00000000
Si      -1.37137365       0.41635611       1.88292461       0.00000000
Si       0.57638907      -2.45026035       0.34362268       0.00000000
Si      -1.85852610      -0.08728182      -1.75036875       0.00000000
Si      -1.85288976      -2.25639306      -0.55825817       0.00000000
Si      -2.64611502      -1.54481328       1.57986135       0.00000000
Si       3.14467047       1.62512298       0.98272516       0.00000000
Si       0.12678507       0.50673303       3.66740170       0.00000000
Si       0.20391822       3.74911092      -0.43332007       0.00000000
Si       0.40206978      -2.83577949       2.65852910       0.00000000
