10
Lattice="16.28999089631971 0.0 0.0 0.0 16.28999089631971 0.0 0.0 0.0 34.31420841018396" Properties=species:S:1:pos:R:3:initial_magmoms:R:1 pbc="T T T"
Si      -1.50620598      -1.12847346       1.37360508       0.00000000
Si      -1.69934022       0.94392309      -1.30381541       0.00000000
Si       1.20071961       1.59681163       1.28429544       0.00000000
Si       0.92571183      -1.56439386      -1.53399525       0.00000000
Si      -2.77933464      -2.28232674      -0.22497609       0.00000000
Si      -0.13610295      -2.41691472       2.70574516       0.00000000
Si      -0.96410736      -3.12494328      -1.58543227       0.00000000
Si       2.72582199      -2.48855814      -0.08720447       0.00000000
Si       2.57002443       0.30439634       2.69736906       0.00000000
Si       3.09557241       2.26405655       0.00901617       0.00000000
