10
Lattice="16.28999089631971 0.0 0.0 0.0 16.28999089631971 0.0 0.0 0.0 34.31420841018396" Properties=species:S:1:pos:R:3:initial_magmoms:R:1 pbc="T T T"
Si       1.35122292       1.35130437       1.37612063       0.00000000
Si      -1.35996576      -1.36635633       1.37869419       0.00000000
Si      -1.42687694       1.27265625      -1.42290464       0.00000000
Si       1.30525254      -1.20045897      -1.61005101       0.00000000
Si      -2.29316448      -0.54340182      -2.77066597       0.00000000
Si      -0.50801994      -2.24091756      -2.92120249       0.00000000
Si       2.70324405      -2.70231552      -0.00969377       0.00000000
Si      -2.73234518       2.69539227       0.00629666       0.00000000
Si       2.72007162       2.70800073       0.00731922       0.00000000
Si      -2.69978813      -2.74173732       0.01806644       0.00000000
