10
Lattice="16.28999089631971 0.0 0.0 0.0 16.28999089631971 0.0 0.0 0.0 34.31420841018396" Properties=species:S:1:pos:R:3:initial_magmoms:R:1 pbc="T T T"
Si       1.92766086       0.81388098       1.14633540       0.00000000
Si       1.52910972      -1.15458633      -1.46377632       0.00000000
Si      -1.18304496       1.57037229      -1.44263876       0.00000000
Si      -1.27681020      -1.10110626       1.78543789       0.00000000
Si       0.57744792      -0.03034827       3.15471283       0.00000000
Si      -2.39992425      -2.53645074       0.05963813       0.00000000
Si       0.18440280      -2.50369155      -2.83318851       0.00000000
Si      -2.53482174       0.21725973      -2.82910512       0.00000000
Si       2.98724391      -2.41500879      -0.08348652       0.00000000
Si       2.76943032       2.73891915      -0.01286784       0.00000000
