10
Lattice="16.28999089631971 0.0 0.0 0.0 16.28999089631971 0.0 0.0 0.0 34.31420841018396" Properties=species:S:1:pos:R:3:initial_magmoms:R:1 pbc="T T T"
Si      -1.59052302      -1.22440527      -1.18521342       0.00000000
Si       2.14358481      -0.14548599      -0.91660165       0.00000000
Si      -0.48865113      -0.91872342       2.15170796       0.00000000
Si      -0.37756962       2.36530800       0.02837787       0.00000000
Si      -0.61064694      -3.36961908      -1.01432857       0.00000000
Si      -3.53053170      -0.72332487       0.01170115       0.00000000
Si      -2.11116771       2.66712912       1.55968459       0.00000000
Si       1.97079678       0.55635237      -3.18453189       0.00000000
Si      -2.79078651      -1.59609420       2.00285284       0.00000000
Si       3.70384101       0.53613648       0.70742212       0.00000000
