10
Lattice="16.28999089631971 0.0 0.0 0.0 16.28999089631971 0.0 0.0 0.0 34.31420841018396" Properties=species:S:1:pos:R:3:initial_magmoms:R:1 pbc="T T T"
Si       1.27962837      -1.93530087       0.17328685       0.00000000
Si      -2.14731522      -0.78537348       0.56059154       0.00000000
Si      -1.18109016       0.18112851      -2.04430442       0.00000000
Si      -2.37685761       1.60015434       0.81897767       0.00000000
Si       1.48592493       2.45691386       0.99507829       0.00000000
Si      -0.53219430       2.16079424       2.12432520       0.00000000
Si      -2.26621593       2.22251705      -1.47290390       0.00000000
Si       2.91112074       0.69581173       1.85049767       0.00000000
Si       1.45945368       3.01284269      -1.32030853       0.00000000
Si      -0.40550697       0.31862150       3.56154231       0.00000000
