10
Lattice="16.28999089631971 0.0 0.0 0.0 16.28999089631971 0.0 0.0 0.0 34.31420841018396" Properties=species:S:1:pos:R:3:initial_magmoms:R:1 pbc="T T T"
Si      -0.59357502       0.45962235       2.19267914       0.00000000
Si      -0.33054039      -2.30370641       0.08722677       0.00000000
Si       2.28524984       0.48045726       0.12370279       0.00000000
Si      -1.44249579       1.55610225      -1.27048428       0.00000000
Si      -2.65805559      -1.97766432       0.07363833       0.00000000
Si       2.28318101       1.44089937      -1.99719099       0.00000000
Si      -2.73522132      -0.56618827       1.99200954       0.00000000
Si      -0.61672311       2.85242787       1.93563126       0.00000000
Si      -0.41303295       3.47506425      -0.35024532       0.00000000
Si       0.94262804      -0.44263351       3.75517750       0.00000000
