10
Lattice="16.28999089631971 0.0 0.0 0.0 16.28999089631971 0.0 0.0 0.0 34.31420841018396" Properties=species:S:1:pos:R:3:initial_magmoms:R:1 pbc="T T T"
Si       1.35747176      -1.35689184       1.35705907       0.00000000
Si       1.35773240       1.35780408      -1.35668162       0.00000000
Si      -1.35744498       1.35790182       1.35740221       0.00000000
Si      -1.35917392      -1.35710361      -1.35719633       0.00000000
Si      -2.71153307       0.00140094      -2.71610837       0.00000000
Si       2.71389119       0.00027693       2.71394657       0.00000000
Si      -0.00101650      -2.71412577       2.71480443       0.00000000
Si       2.71099157       0.00019548      -2.71799565       0.00000000
Si       2.71478714      -2.71459818      -0.00089217       0.00000000
Si      -2.71560557       0.00013032       2.71391226       0.00000000
