10
Lattice="16.28999089631971 0.0 0.0 0.0 16.28999089631971 0.0 0.0 0.0 34.31420841018396" Properties=species:S:1:pos:R:3:initial_magmoms:R:1 pbc="T T T"
Si       1.07546580       0.61705054      -1.96020025       0.00000000
Si       1.78958682      -1.15182585       0.96992596       0.00000000
Si      -1.73530854      -1.24704090      -1.01027949       0.00000000
Si      -0.82836279       1.88649440       1.24502312       0.00000000
Si      -0.25363530       2.39863571      -2.60194494       0.00000000
Si      -2.28781647      -1.12634829       2.56533165       0.00000000
Si      -3.46890663      -0.94521978       0.52102723       0.00000000
Si       3.38572989       0.47899605       1.68997571       0.00000000
Si       0.81650367       3.61163798       1.05296639       0.00000000
Si       1.22272740      -2.20372002       2.91996920       0.00000000
