10
Lattice="16.28999089631971 0.0 0.0 0.0 16.28999089631971 0.0 0.0 0.0 34.31420841018396" Properties=species:S:1:pos:R:3:initial_magmoms:R:1 pbc="T T T"
Si      -1.90299780       0.88099578      -1.12111444       0.00000000
Si       1.76659253       1.39129632      -0.79022235       0.00000000
Si       0.66622842      -2.25164615      -0.48410512       0.00000000
Si      -0.34572267       0.13284495       2.37330924       0.00000000
Si      -2.63042775       0.51875505       2.55342462       0.00000000
Si       2.03381369      -1.99003690      -2.37111313       0.00000000
Si       2.14951504      -2.75288783       1.32308799       0.00000000
Si      -3.54786426      -0.84414780      -0.92905771       0.00000000
Si       3.29544161      -0.04007340      -2.04351520       0.00000000
Si      -2.53390950       3.03601617      -0.18934591       0.00000000
