10
Lattice="16.28999089631971 0.0 0.0 0.0 16.28999089631971 0.0 0.0 0.0 34.31420841018396" Properties=species:S:1:pos:R:3:initial_magmoms:R:1 pbc="T T T"
Si       1.35725022       1.35697329       1.35688750       0.00000000
Si      -1.35746199       1.35780408      -1.35743653       0.00000000
Si       1.35848826      -1.35840681      -1.35709339       0.00000000
Si      -1.35832536      -1.35931905       1.35798556       0.00000000
Si       2.71368187      -0.00026064      -2.71422109       0.00000000
Si      -0.00096111       2.71469592      -2.71391226       0.00000000
Si      -2.71461447       2.71492398       0.00037746       0.00000000
Si      -2.71404432      -0.00003258      -2.71559366       0.00000000
Si       0.00079821      -2.71555929      -2.71408383       0.00000000
Si      -0.00273672       2.71393029       2.71600543       0.00000000
