10
Lattice="16.28999089631971 0.0 0.0 0.0 16.28999089631971 0.0 0.0 0.0 34.31420841018396" Properties=species:S:1:pos:R:3:initial_magmoms:R:1 pbc="T T T"
Si       1.48981824       1.19863449       1.31066624       0.00000000
Si       1.40175450      -1.29743334      -1.36779943       0.00000000
Si      -1.56781476      -1.13479398       1.37792212       0.00000000
Si      -1.30969971       1.44738279      -1.36007872       0.00000000
Si      -3.30103818       0.82945422       1.52883610       0.00000000
Si      -2.65080654      -2.68306074       0.04289278       0.00000000
Si      -2.56966605       2.78334198       0.23048867       0.00000000
Si       0.04445541      -2.63277351      -2.73752045       0.00000000
Si      -2.67393834       0.08061921      -2.73611357       0.00000000
Si       2.75277691       2.69180847       0.01904440       0.00000000
