10
Lattice="16.28999089631971 0.0 0.0 0.0 16.28999089631971 0.0 0.0 0.0 34.31420841018396" Properties=species:S:1:pos:R:3:initial_magmoms:R:1 pbc="T T T"
Si      -1.63472009      -1.65108924      -0.23879271       0.00000000
Si      -0.11827192       2.03914962      -1.37538287       0.00000000
Si       1.97767605      -0.18707436      -1.60106754       0.00000000
Si      -1.81511555       2.48891652       0.57146915       0.00000000
Si      -2.80487966      -0.43622991      -1.73506460       0.00000000
Si       3.21573234       0.36634581       1.45629582       0.00000000
Si      -0.26852436      -3.15724635      -1.61633738       0.00000000
Si      -1.54192099       1.05694407      -3.02668644       0.00000000
Si       2.38792341       2.56793931       0.72389295       0.00000000
Si       3.30747762      -1.45973061      -0.12359985       0.00000000
