10
Lattice="16.28999089631971 0.0 0.0 0.0 16.28999089631971 0.0 0.0 0.0 34.31420841018396" Properties=species:S:1:pos:R:3:initial_magmoms:R:1 pbc="T T T"
Si      -1.16067879       1.92409335      -0.70762800       0.00000000
Si      -0.98380197      -1.70852778      -1.33420580       0.00000000
Si       2.30092082       0.13188384      -0.62191106       0.00000000
Si      -0.81397872      -0.44512425       2.21446868       0.00000000
Si       1.99161933       1.04659992      -2.84725735       0.00000000
Si       0.23110623       2.68276752      -2.47741860       0.00000000
Si      -1.93494249      -2.55396249       1.78176627       0.00000000
Si      -3.20950467       1.00747134      -1.54293924       0.00000000
Si      -3.26850705      -1.32261768      -1.15409042       0.00000000
Si      -1.78421112       3.10036167       1.36903474       0.00000000
