10
Lattice="16.28999089631971 0.0 0.0 0.0 16.28999089631971 0.0 0.0 0.0 34.31420841018396" Properties=species:S:1:pos:R:3:initial_magmoms:R:1 pbc="T T T"
Si       1.36616004      -1.27176030      -1.40125580       0.00000000
Si      -1.26295867      -1.49317398       1.29162184       0.00000000
Si       1.42364907       0.98220555       1.65130357       0.00000000
Si      -1.34115067       1.45806903      -1.38529968       0.00000000
Si      -2.17697428       0.15726366       2.75385402       0.00000000
Si       1.54192099      -1.05694407       3.02668644       0.00000000
Si       2.55407245       2.58769908       0.12092334       0.00000000
Si       0.00738440      -2.61009783      -2.75810898       0.00000000
Si       2.58070660      -2.80096776      -0.02172091       0.00000000
Si      -2.75277691      -2.69180847      -0.01904440       0.00000000
