10
Lattice="16.28999089631971 0.0 0.0 0.0 16.28999089631971 0.0 0.0 0.0 34.31420841018396" Properties=species:S:1:pos:R:3:initial_magmoms:R:1 pbc="T T T"
Si      -1.35871632      -1.35718506      -1.35609827       0.00000000
Si       1.35741312       1.35713619      -1.35767673       0.00000000
Si      -1.35780408       1.35782037       1.35719633       0.00000000
Si       1.35765560      -1.35713619       1.35819144       0.00000000
Si      -2.71406061      -0.00083079      -2.71380932       0.00000000
Si      -0.00215028       2.71241532       2.71573091       0.00000000
Si       0.00356751      -2.71363707      -2.71531914       0.00000000
Si      -2.71521720      -2.71407690       0.00037746       0.00000000
Si      -0.00050499      -2.71490769       2.71470149       0.00000000
Si      -2.71565703       0.00154755       2.71428972       0.00000000
