10
Lattice="16.28999089631971 0.0 0.0 0.0 16.28999089631971 0.0 0.0 0.0 34.31420841018396" Properties=species:S:1:pos:R:3:initial_magmoms:R:1 pbc="T T T"
Si       1.35565380       1.35459495       1.35853458       0.00000000
Si      -1.35785295      -1.35627282       1.35709339       0.00000000
Si      -1.35759231       1.35780408      -1.35654436       0.00000000
Si       1.35780408      -1.35782037      -1.35719633       0.00000000
Si      -2.71063971      -0.00496845       2.71459854       0.00000000
Si      -2.71430496      -0.00138465      -2.71380932       0.00000000
Si      -0.00091224      -2.71500543      -2.71329460       0.00000000
Si      -0.00188964       2.71489140      -2.71363775       0.00000000
Si      -2.71456560      -2.71477737       0.00099511       0.00000000
Si      -2.71441899       2.71492398       0.00099511       0.00000000
