10
Lattice="16.28999089631971 0.0 0.0 0.0 16.28999089631971 0.0 0.0 0.0 34.31420841018396" Properties=species:S:1:pos:R:3:initial_magmoms:R:1 pbc="T T T"
Si      -1.12330953      -1.35404109       1.55515511       0.00000000
Si       1.27677762      -1.44357093      -1.37527993       0.00000000
Si      -1.45813419       1.26042246      -1.38028980       0.00000000
Si       0.88563843       1.80095724       1.31200449       0.00000000
Si      -1.28389635       0.22646358       3.34800487       0.00000000
Si      -1.05958305       3.22888977       1.22982192       0.00000000
Si       1.03508289       0.72738108       3.45403583       0.00000000
Si       2.62257085      -0.08298126      -2.74784903       0.00000000
Si       2.66505298       2.71215468       0.02347093       0.00000000
Si      -0.09172899       2.63173095      -2.74596175       0.00000000
