10
Lattice="16.28999089631971 0.0 0.0 0.0 16.28999089631971 0.0 0.0 0.0 34.31420841018396" Properties=species:S:1:pos:R:3:initial_magmoms:R:1 pbc="T T T"
Si       1.83475966      -0.05779692       1.45718799       0.00000000
Si       0.67953735      -1.35340578      -1.79851161       0.00000000
Si      -1.39075875      -1.32963867       1.51257115       0.00000000
Si       0.01855431       2.16603243      -1.41213341       0.00000000
Si       0.84931173       1.83472641       2.55122851       0.00000000
Si       3.60017864       0.28277811      -0.09494747       0.00000000
Si      -0.53261784      -3.50647137       0.75999151       0.00000000
Si       2.88010525      -0.63014607      -2.13424201       0.00000000
Si      -0.56104389      -0.53957367      -3.59945953       0.00000000
Si      -1.54170189       1.48440996      -3.03615717       0.00000000
