10
Lattice="16.28999089631971 0.0 0.0 0.0 16.28999089631971 0.0 0.0 0.0 34.31420841018396" Properties=species:S:1:pos:R:3:initial_magmoms:R:1 pbc="T T T"
Si      -0.56685942      -1.05189417       1.95004324       0.00000000
Si      -1.78958682       1.15182585      -0.96992596       0.00000000
Si       0.55651527      -1.92438657      -1.30116120       0.00000000
Si       1.59614307       1.63082189       0.72004975       0.00000000
Si      -0.71412102       1.76887638      -2.93012621       0.00000000
Si       2.96372834       1.89243115      -1.16695825       0.00000000
Si      -1.16628255       0.72128929       3.44590336       0.00000000
Si       1.38727269      -2.25569259       2.66220072       0.00000000
Si      -2.79777492      -1.90982331       1.76869255       0.00000000
Si       2.25339165      -1.36423863      -2.92882227       0.00000000
