10
Lattice="16.28999089631971 0.0 0.0 0.0 16.28999089631971 0.0 0.0 0.0 34.31420841018396" Properties=species:S:1:pos:R:3:initial_magmoms:R:1 pbc="T T T"
Si       1.35154872      -1.35526284      -1.35856890       0.00000000
Si       1.33955928       1.35853713       1.37335833       0.00000000
Si      -1.36341110       1.35905841      -1.35733359       0.00000000
Si      -1.35895741      -1.37236734       1.35695613       0.00000000
Si       2.60556921      -0.09554085       2.74630489       0.00000000
Si      -0.17104500       2.48709204       2.87913527       0.00000000
Si       2.70995553       0.00213399      -2.71542209       0.00000000
Si      -0.00487071      -2.71243161      -2.71545640       0.00000000
Si      -2.71773305      -2.71070487       0.00010294       0.00000000
Si       2.71068858       2.71800279       0.00305397       0.00000000
