10
Lattice="16.28999089631971 0.0 0.0 0.0 16.28999089631971 0.0 0.0 0.0 34.31420841018396" Properties=species:S:1:pos:R:3:initial_magmoms:R:1 pbc="T T T"
Si      -0.72007339      -0.91292418      -2.03929455       0.00000000
Si       2.06858565      -1.10079675       0.26916080       0.00000000
Si       0.19940589       2.33225559       0.29098465       0.00000000
Si      -1.76541898      -0.34057503       1.55213546       0.00000000
Si       3.00182346       0.60165486       1.59777338       0.00000000
Si      -3.60017864      -0.28277811       0.09494747       0.00000000
Si      -0.69469357       2.63779083       2.42532961       0.00000000
Si      -2.92064129      -1.63618389      -1.70356414       0.00000000
Si       0.59465016      -2.75880924      -2.59014084       0.00000000
Si       2.69229717      -2.06819469      -1.79336448       0.00000000
