10
Lattice="16.28999089631971 0.0 0.0 0.0 16.28999089631971 0.0 0.0 0.0 34.31420841018396" Properties=species:S:1:pos:R:3:initial_magmoms:R:1 pbc="T T T"
Si       0.04957047       1.91138715      -1.33345088       0.00000000
Si       2.00800314      -0.02564046       1.19914500       0.00000000
Si      -1.10799693       0.59458500       1.97619068       0.00000000
Si      -0.82191195      -1.98878094      -1.00262742       0.00000000
Si       0.06753834       2.71062342       2.02224037       0.00000000
Si       1.50472359      -1.82237859       2.54553235       0.00000000
Si       0.67328199       0.94398921      -3.39597616       0.00000000
Si       0.98280828       3.61383876      -0.00483831       0.00000000
Si      -2.59754150      -2.69972541       0.44577613       0.00000000
Si      -0.77489901      -1.66017906       3.35936288       0.00000000
