10
Lattice="16.28999089631971 0.0 0.0 0.0 16.28999089631971 0.0 0.0 0.0 34.31420841018396" Properties=species:S:1:pos:R:3:initial_magmoms:R:1 pbc="T T T"
Si       1.36406921      -1.30594096       1.39720672       0.00000000
Si      -1.34752931      -1.36308760      -1.36306406       0.00000000
Si       1.36810913       1.35441739      -1.35723064       0.00000000
Si      -1.53438509       1.12401163       1.40962847       0.00000000
Si      -0.08040255       2.46733390       2.80800187       0.00000000
Si      -2.70482159       2.69228251       0.01080898       0.00000000
Si       2.69861117      -2.71530421      -0.00703442       0.00000000
Si      -2.70545690      -2.70849499       0.00456379       0.00000000
Si      -2.70547319      -0.00286378      -2.71881919       0.00000000
Si       0.00795929       2.71246582      -2.71827017       0.00000000
