10
Lattice="16.28999089631971 0.0 0.0 0.0 16.28999089631971 0.0 0.0 0.0 34.31420841018396" Properties=species:S:1:pos:R:3:initial_magmoms:R:1 pbc="T T T"
Si      -1.51011558       1.18073178       1.35997578       0.00000000
Si      -1.36891386      -1.34540739      -1.37318676       0.00000000
Si       1.34829072       1.36739889      -1.37425050       0.00000000
Si       1.50172623      -1.27928628       1.46511458       0.00000000
Si       2.71686249      -2.68726682      -0.00940210       0.00000000
Si       2.71155195       2.71347417       0.01070604       0.00000000
Si      -2.72466214       2.70993924      -0.01955911       0.00000000
Si       2.70075168       0.01016496      -2.73494688       0.00000000
Si      -2.73702299      -2.69982478      -0.01595612       0.00000000
Si      -0.01484019      -2.70458146      -2.73412334       0.00000000
