10
Lattice="16.28999089631971 0.0 0.0 0.0 16.28999089631971 0.0 0.0 0.0 34.31420841018396" Properties=species:S:1:pos:R:3:initial_magmoms:R:1 pbc="T T T"
Si       1.68427197       0.81979425       1.38330946       0.00000000
Si      -0.54641547       1.39066101      -1.81144807       0.00000000
Si      -1.90119287      -0.21976839       1.40883924       0.00000000
Si       0.76439196      -2.18043279      -0.66168125       0.00000000
Si       2.63453283      -1.12938570       2.20283615       0.00000000
Si       1.01890692       3.18852315      -1.57080240       0.00000000
Si       0.75421071       2.71375110       2.49560514       0.00000000
Si      -3.55736852      -1.32108642       0.17304665       0.00000000
Si      -2.85484042       1.99495485      -1.52406642       0.00000000
Si       3.04520373      -2.28763728       0.16783089       0.00000000
