10
Lattice="16.28999089631971 0.0 0.0 0.0 16.28999089631971 0.0 0.0 0.0 34.529650657227435" Properties=species:S:1:pos:R:3:initial_magmoms:R:1 pbc="T T T"
Si      -1.09044513      -0.24096168      -2.07084790       0.00000000
Si      -0.21569100       2.42652582       0.44456950       0.00000000
Si      -1.90556415      -0.93568131       1.33018648       0.00000000
Si       1.47932585       0.16088004       2.07851348       0.00000000
Si      -0.33320706       1.75036050       2.72881076       0.00000000
Si      -3.07929123      -0.90284067      -0.69024810       0.00000000
Si       3.13002413      -1.47982432      -0.53434664       0.00000000
Si       0.46112592      -1.46611955      -3.37600036       0.00000000
Si       3.07219463       1.69513740       1.28623021       0.00000000
Si      -2.48631894       0.76502727       2.84994084       0.00000000
