10
Lattice="16.28999089631971 0.0 0.0 0.0 16.28999089631971 0.0 0.0 0.0 34.529650657227435" Properties=species:S:1:pos:R:3:initial_magmoms:R:1 pbc="T T T"
Si       1.44715473      -1.27827630       1.42422113       0.00000000
Si      -1.66566879      -0.87153129      -1.49170043       0.00000000
Si      -1.25488386       1.44594927       1.45102996       0.00000000
Si       1.34433225       1.19773854      -1.62422530       0.00000000
Si      -0.47223081       0.97197543      -3.26189849       0.00000000
Si      -3.43986156       0.73809990      -1.20154550       0.00000000
Si      -2.62361853       2.66416434      -0.01395689       0.00000000
Si       2.65807188       2.63293641      -0.06121075       0.00000000
Si      -2.66268195      -2.68762194      -0.02955049       0.00000000
Si       0.08303013      -2.62176147       2.81444089       0.00000000
