10
Lattice="16.28999089631971 0.0 0.0 0.0 16.28999089631971 0.0 0.0 0.0 34.529650657227435" Properties=species:S:1:pos:R:3:initial_magmoms:R:1 pbc="T T T"
Si      -1.62714294       1.05793776       1.25940065       0.00000000
Si      -1.34605899      -1.34291502      -1.35069710       0.00000000
Si       1.36603053       1.38292326      -1.34386022       0.00000000
Si       1.32774903      -1.39675347       1.38657343       0.00000000
Si       0.22838580       1.95605433       2.74828549       0.00000000
Si       2.13364791       0.38038779       2.76233907       0.00000000
Si      -2.70226665      -2.67696828       0.04927384       0.00000000
Si       0.00338832      -2.69229717      -2.70539964       0.00000000
Si      -2.70990666       0.01967832      -2.70222291       0.00000000
Si       2.73222396      -2.68959303       0.01073873       0.00000000
