10
Lattice="16.28999089631971 0.0 0.0 0.0 16.28999089631971 0.0 0.0 0.0 34.529650657227435" Properties=species:S:1:pos:R:3:initial_magmoms:R:1 pbc="T T T"
Si      -1.34631963      -1.32457248       1.37803424       0.00000000
Si      -1.39444029       1.21257873      -1.49887773       0.00000000
Si       1.36634004       1.38942297       1.36791705       0.00000000
Si       1.22476365      -1.50270363      -1.50117395       0.00000000
Si       2.28496572       0.35585505      -2.60867168       0.00000000
Si       0.51072408       2.10825180      -2.82254987       0.00000000
Si      -2.68819209      -2.68969077       0.01106676       0.00000000
Si       2.72187981      -2.69145009      -0.01612190       0.00000000
Si       0.00651600      -2.68376121       2.73332379       0.00000000
Si      -2.69421939       2.74176990      -0.02010317       0.00000000
