10
Lattice="16.28999089631971 0.0 0.0 0.0 16.28999089631971 0.0 0.0 0.0 34.529650657227435" Properties=species:S:1:pos:R:3:initial_magmoms:R:1 pbc="T T T"
Si       1.34631963       1.32457248      -1.37803424       0.00000000
Si       1.35283563      -1.35918873       1.35528955       0.00000000
Si      -1.35948195       1.35400851       1.35456442       0.00000000
Si      -1.34187246      -1.36511829      -1.36696748       0.00000000
Si      -0.00203625       2.71249677       2.71158045       0.00000000
Si       2.71213839      -0.00175932       2.71202934       0.00000000
Si      -0.04812066       2.53715121      -2.87691196       0.00000000
Si       2.71265967       2.71399545      -0.01011719       0.00000000
Si      -2.71666701       2.71191033      -0.00849430       0.00000000
Si      -2.71738377      -0.00172674       2.71171857       0.00000000
