10
Lattice="16.28999089631971 0.0 0.0 0.0 16.28999089631971 0.0 0.0 0.0 34.529650657227435" Properties=species:S:1:pos:R:3:initial_magmoms:R:1 pbc="T T T"
Si      -1.62539502      -1.63042212      -0.40175271       0.00000000
Si      -0.34971372       2.03237298      -1.10484585       0.00000000
Si      -0.53760258       0.34534800       2.33296262       0.00000000
Si       2.10422817      -1.01514393      -0.76372724       0.00000000
Si       2.19154257      -1.27425267       1.92558157       0.00000000
Si       0.83676843       2.16709128       2.50858052       0.00000000
Si      -0.94428243      -2.97047254       1.45390628       0.00000000
Si       0.20158875       3.43880271       0.67961296       0.00000000
Si       0.15649803      -1.70495864       3.10608193       0.00000000
Si      -3.58178723      -0.43815213       0.43065404       0.00000000
