10
Lattice="16.28999089631971 0.0 0.0 0.0 16.28999089631971 0.0 0.0 0.0 34.529650657227435" Properties=species:S:1:pos:R:3:initial_magmoms:R:1 pbc="T T T"
Si      -0.86004684       2.18385369       0.32036628       0.00000000
Si       1.35596331      -0.70900596       1.83832510       0.00000000
Si       1.54279332       0.55115586      -1.75497048       0.00000000
Si      -1.17493254      -1.97640054      -0.75657960       0.00000000
Si      -0.48438315      -2.08207377      -3.06644187       0.00000000
Si       3.63431529       0.65160000      -0.71479870       0.00000000
Si       3.33739746       0.50963265       1.68532413       0.00000000
Si      -0.16930197      -3.75355809       0.52457475       0.00000000
Si      -2.63735100       2.42778015      -1.30166497       0.00000000
Si       1.87289388      -2.97566172       1.51333185       0.00000000
