10
Lattice="16.28999089631971 0.0 0.0 0.0 16.28999089631971 0.0 0.0 0.0 34.529650657227435" Properties=species:S:1:pos:R:3:initial_magmoms:R:1 pbc="T T T"
Si       0.20597076      -1.73579724      -1.54475384       0.00000000
Si       2.09152197       0.10044414       1.04017178       0.00000000
Si      -0.17790309       2.00189439      -1.31326694       0.00000000
Si      -1.54279332      -0.55115586       1.75497048       0.00000000
Si       2.56976379       2.30900976       0.52029307       0.00000000
Si      -2.40284016       1.63269783       2.07533675       0.00000000
Si      -2.02717647      -2.63322963      -1.31147139       0.00000000
Si       0.74793906       3.71195343      -0.05431517       0.00000000
Si      -0.18683001      -1.26016182       3.59329557       0.00000000
Si      -0.64395999       3.32097714       1.82361546       0.00000000
