10
Lattice="16.28999089631971 0.0 0.0 0.0 16.28999089631971 0.0 0.0 0.0 34.529650657227435" Properties=species:S:1:pos:R:3:initial_magmoms:R:1 pbc="T T T"
Si      -1.96392959      -1.09577929       0.61241823       0.00000000
Si       1.10078046       1.26551390       1.65217565       0.00000000
Si       1.48234113      -1.61562577      -0.88040299       0.00000000
Si      -0.68111259       1.34005042      -1.85565899       0.00000000
Si       0.94428243       2.97047254      -1.45390628       0.00000000
Si      -2.19817979      -2.25719113      -1.40660064       0.00000000
Si       0.40667985       3.31582054       0.87905634       0.00000000
Si       3.13582500       1.69621987       0.47167529       0.00000000
Si      -0.06046848      -2.91356410      -2.15579088       0.00000000
Si      -1.34173074      -2.51843386       2.35492349       0.00000000
