10
Lattice="16.28999089631971 0.0 0.0 0.0 16.28999089631971 0.0 0.0 0.0 34.529650657227435" Properties=species:S:1:pos:R:3:initial_magmoms:R:1 pbc="T T T"
Si      -1.56480111      -1.75787019       0.01788637       0.00000000
Si      -1.02110607       2.12361327       0.19675006       0.00000000
Si       1.11162960      -0.12815343      -2.11860243       0.00000000
Si       1.00598895      -0.06781527       2.23037497       0.00000000
Si       0.95418675       3.22599015       0.80709651       0.00000000
Si      -0.74551185      -1.29842703       3.34533801       0.00000000
Si      -0.92962143      -3.02958162       1.84685393       0.00000000
Si      -3.56489220      -0.83033388       0.83900192       0.00000000
Si       1.62856017      -2.39480919      -2.44359568       0.00000000
Si      -2.61039105       0.11100006       2.83595632       0.00000000
