10
Lattice="16.28999089631971 0.0 0.0 0.0 16.28999089631971 0.0 0.0 0.0 34.529650657227435" Properties=species:S:1:pos:R:3:initial_magmoms:R:1 pbc="T T T"
Si      -1.10752452      -1.49545458       1.50087841       0.00000000
Si       1.55496195       1.18859985       1.45592078       0.00000000
Si       0.57979368      -0.88788645      -2.21245407       0.00000000
Si      -2.26694898       1.21810104      -1.88390426       0.00000000
Si      -2.48644044       2.81965239       0.03853511       0.00000000
Si       1.04386320      -3.18764349      -1.74706318       0.00000000
Si      -2.47031334      -0.00430056       2.94279945       0.00000000
Si      -1.47828492      -0.53574552      -3.56394535       0.00000000
Si      -1.92376755      -3.42151902       0.31328981       0.00000000
Si       0.25518285       2.71779102       2.93469534       0.00000000
