10
Lattice="16.28999089631971 0.0 0.0 0.0 16.28999089631971 0.0 0.0 0.0 34.529650657227435" Properties=species:S:1:pos:R:3:initial_magmoms:R:1 pbc="T T T"
Si       1.34522820       1.36068741       1.38998841       0.00000000
Si      -1.36876725      -1.35443205       1.38964311       0.00000000
Si      -1.30693041       1.41224526      -1.46410980       0.00000000
Si       1.29977910      -1.52919117      -1.47877455       0.00000000
Si       2.70736542       2.71386336       0.00166088       0.00000000
Si      -2.72534958       2.70640105       0.01884629       0.00000000
Si       2.69421939      -2.74176990       0.02010317       0.00000000
Si      -2.72549619      -2.72209158       0.00810411       0.00000000
Si       2.70275535       0.00495216       2.75246013       0.00000000
Si      -0.01158219      -2.71233387       2.75270184       0.00000000
