10
Lattice="16.28999089631971 0.0 0.0 0.0 16.28999089631971 0.0 0.0 0.0 34.529650657227435" Properties=species:S:1:pos:R:3:initial_magmoms:R:1 pbc="T T T"
Si       1.35622395       1.35751086       1.35715415       0.00000000
Si      -1.35747828       1.35692442      -1.35781021       0.00000000
Si      -1.35850455      -1.35900954       1.35684338       0.00000000
Si       1.35806472      -1.35866745      -1.35798286       0.00000000
Si      -0.00104256       2.71513575       2.71202934       0.00000000
Si      -2.71500543       2.71417307      -0.00017265       0.00000000
Si       2.71500543       2.71432998      -0.00055247       0.00000000
Si       0.00013032       2.71420564      -2.71551683       0.00000000
Si       2.71495656       0.00013032      -2.71524060       0.00000000
Si      -2.71208952       0.00047241       2.71928057       0.00000000
