10
Lattice="16.28999089631971 0.0 0.0 0.0 16.28999089631971 0.0 0.0 0.0 34.529650657227435" Properties=species:S:1:pos:R:3:initial_magmoms:R:1 pbc="T T T"
Si       1.35765747      -1.35711990       1.35770662       0.00000000
Si       1.35689184       1.35879777      -1.35725774       0.00000000
Si      -1.35744570      -1.35848826      -1.35701603       0.00000000
Si      -1.35806472       1.35866745       1.35798286       0.00000000
Si       0.00203625      -2.71249677      -2.71158045       0.00000000
Si       2.71417464      -2.71425609       0.00044889       0.00000000
Si      -2.71534752      -2.71422351       0.00013812       0.00000000
Si       2.71581993      -0.00027693       2.71472265       0.00000000
Si       2.71531494       2.71564074       0.00048342       0.00000000
Si      -2.71554300       2.71559187       0.00017265       0.00000000
