10
Lattice="16.28999089631971 0.0 0.0 0.0 16.28999089631971 0.0 0.0 0.0 34.529650657227435" Properties=species:S:1:pos:R:3:initial_magmoms:R:1 pbc="T T T"
Si      -1.35153243      -1.34001540      -1.39368654       0.00000000
Si       1.35881406       1.37277459      -1.39151117       0.00000000
Si      -1.37024964       1.31582475       1.49244139       0.00000000
Si       1.35907470      -1.47452193       1.48004524       0.00000000
Si       0.29514222       2.51406828       2.85180544       0.00000000
Si      -2.71401174      -2.69312796      -0.03152559       0.00000000
Si       2.71572219      -2.70940167      -0.02720938       0.00000000
Si      -2.70692559       2.73292443      -0.00825259       0.00000000
Si       2.71862181       2.73183300      -0.01923303       0.00000000
Si       0.00017919      -2.70140328      -2.75419006       0.00000000
