10
Lattice="16.28999089631971 0.0 0.0 0.0 16.28999089631971 0.0 0.0 0.0 34.529650657227435" Properties=species:S:1:pos:R:3:initial_magmoms:R:1 pbc="T T T"
Si       1.99601370      -1.12946715       0.38624889       0.00000000
Si       0.12699684       0.10731852      -2.32878453       0.00000000
Si       0.23776884       2.13673391       0.91652103       0.00000000
Si       1.43457885      -3.32754201      -0.48227590       0.00000000
Si       3.52978236      -0.54016011      -1.39261612       0.00000000
Si       1.98635373      -1.20765915      -3.09927959       0.00000000
Si      -1.94383683      -0.62666001      -3.34447477       0.00000000
Si      -1.12500369       2.44027199       2.86862139       0.00000000
Si       2.35887345      -1.40502879       2.83195088       0.00000000
Si       1.15090479       2.17264684      -3.11171027       0.00000000
