10
Lattice="16.28999089631971 0.0 0.0 0.0 16.28999089631971 0.0 0.0 0.0 34.529650657227435" Properties=species:S:1:pos:R:3:initial_magmoms:R:1 pbc="T T T"
Si      -1.61999163      -1.08782991      -1.36456909       0.00000000
Si       1.38091959      -1.30906440       1.55695663       0.00000000
Si      -1.33286409       1.39600413       1.56637287       0.00000000
Si       1.26164421       1.44396189      -1.59598694       0.00000000
Si      -2.66031990      -2.52763948       0.17665034       0.00000000
Si       2.64528423       2.64696210       0.10821599       0.00000000
Si       2.72463282      -2.72561999       0.02995449       0.00000000
Si      -2.78001882       2.67428043       0.14215175       0.00000000
Si       0.01982493      -2.66254023       2.95162036       0.00000000
Si      -2.69698869       0.05251896       2.95659263       0.00000000
