10
Lattice="16.28999089631971 0.0 0.0 0.0 16.28999089631971 0.0 0.0 0.0 34.529650657227435" Properties=species:S:1:pos:R:3:initial_magmoms:R:1 pbc="T T T"
Si       0.34103115      -0.82806957       2.13690315       0.00000000
Si      -2.08378422      -0.67223943      -0.83012780       0.00000000
Si      -0.51820119       2.26572723       0.63420645       0.00000000
Si       2.00487546      -0.38118600      -1.32587027       0.00000000
Si      -1.16191683       2.66041764      -1.67089073       0.00000000
Si      -2.22112521       0.80171235      -2.66465463       0.00000000
Si       2.66264937      -0.31446216       2.50143288       0.00000000
Si       3.46542057      -1.14686487       0.45592976       0.00000000
Si       1.55219265      -2.20996493      -2.84738564       0.00000000
Si      -3.81451527      -0.36787707       0.85650846       0.00000000
