10
Lattice="16.28999089631971 0.0 0.0 0.0 16.28999089631971 0.0 0.0 0.0 34.529650657227435" Properties=species:S:1:pos:R:3:initial_magmoms:R:1 pbc="T T T"
Si       2.02152384       0.81340531      -0.75461141       0.00000000
Si      -1.54357524       1.59706508       0.76144828       0.00000000
Si       0.33058926      -1.32843062       1.91069929       0.00000000
Si      -1.25266842      -0.35523473      -2.00734783       0.00000000
Si      -1.15714386       1.96414394      -2.53969175       0.00000000
Si       2.65461840      -1.14407669      -1.90987057       0.00000000
Si       1.16447436       2.47775135      -2.17516203       0.00000000
Si      -3.12170157       0.19902145       1.79871957       0.00000000
Si      -0.14859738       0.18401836       3.71908716       0.00000000
Si       2.42048223      -2.31391046       1.67299704       0.00000000
