10
Lattice="16.28999089631971 0.0 0.0 0.0 16.28999089631971 0.0 0.0 0.0 34.529650657227435" Properties=species:S:1:pos:R:3:initial_magmoms:R:1 pbc="T T T"
Si      -0.26555958       1.72556386      -1.68176758       0.00000000
Si      -2.18848005      -1.04466467      -0.20206763       0.00000000
Si      -0.85138056       1.69756135       1.58922806       0.00000000
Si       1.94672016      -1.23893010       1.38484694       0.00000000
Si       1.60725285      -1.42468497      -2.36818288       0.00000000
Si      -2.11807467       2.88590056      -0.47996241       0.00000000
Si      -3.23877780       0.90361933      -1.39817540       0.00000000
Si      -1.89170883       0.25775178       3.13044749       0.00000000
Si      -1.83700701       1.02605497      -3.30031132       0.00000000
Si      -3.55125258      -0.74112658       1.75003273       0.00000000
