10
Lattice="16.28999089631971 0.0 0.0 0.0 16.28999089631971 0.0 0.0 0.0 34.529650657227435" Properties=species:S:1:pos:R:3:initial_magmoms:R:1 pbc="T T T"
Si      -1.35539316      -1.35014778       1.38531655       0.00000000
Si       1.35900954       1.36938627       1.38687038       0.00000000
Si      -1.49711616       1.18874646      -1.48505205       0.00000000
Si       1.27011501      -1.47150828      -1.45777706       0.00000000
Si      -2.72187981       2.69145009       0.01612190       0.00000000
Si       2.69501760      -2.72036484       0.01699896       0.00000000
Si       2.70216891       2.71564074       0.00618772       0.00000000
Si      -2.70803331      -2.72246625       0.00037983       0.00000000
Si       0.00097740      -2.70941796       2.74865151       0.00000000
Si       2.71573848       0.00620649       2.74806450       0.00000000
