10
Lattice="16.28999089631971 0.0 0.0 0.0 16.28999089631971 0.0 0.0 0.0 34.529650657227435" Properties=species:S:1:pos:R:3:initial_magmoms:R:1 pbc="T T T"
Si      -1.34475579      -1.35384561       1.35356306       0.00000000
Si      -1.35630540       1.35586557      -1.35988199       0.00000000
Si       1.35716877      -1.35801585      -1.36067617       0.00000000
Si       1.35630540       1.35501849       1.39558567       0.00000000
Si      -2.71433754      -2.71384884      -0.00141572       0.00000000
Si      -2.71094922       2.71867068      -0.00103589       0.00000000
Si       2.71428867       2.71687878       0.00497227       0.00000000
Si       0.00100998       2.71516833      -2.71662178       0.00000000
Si      -2.71427238      -0.00138465      -2.71796844       0.00000000
Si       0.00102627      -2.71520091      -2.71745050       0.00000000
