10
Lattice="16.28999089631971 0.0 0.0 0.0 16.28999089631971 0.0 0.0 0.0 34.529650657227435" Properties=species:S:1:pos:R:3:initial_magmoms:R:1 pbc="T T T"
Si       1.39909923      -1.29919266       1.42193526       0.00000000
Si      -1.30319458       1.44673119       1.42350636       0.00000000
Si       1.95595659       0.72648513      -1.21663497       0.00000000
Si      -1.73872034      -1.00408302      -1.43821397       0.00000000
Si       0.45429552       1.36679616      -2.84415854       0.00000000
Si      -3.55143896       0.72436743      -1.20838893       0.00000000
Si      -2.72734415      -2.68714953      -0.01682286       0.00000000
Si       2.77219962       2.65254957      -0.02904636       0.00000000
Si       2.73313620      -2.69923671      -0.04463996       0.00000000
Si       0.05084923      -2.63145402       2.80111243       0.00000000
