10
Lattice="16.28999089631971 0.0 0.0 0.0 16.28999089631971 0.0 0.0 0.0 34.529650657227435" Properties=species:S:1:pos:R:3:initial_magmoms:R:1 pbc="T T T"
Si       1.55571129       0.14178816       1.76767739       0.00000000
Si      -1.50933366       1.58832387       0.94210752       0.00000000
Si       1.27669617       0.38519334      -1.98207211       0.00000000
Si      -1.48444254      -1.83234807      -0.58203212       0.00000000
Si       2.38721805      -2.05309386       1.68801745       0.00000000
Si       2.96039799      -1.98539262      -0.58227382       0.00000000
Si      -3.47659551       1.17661041      -0.30686518       0.00000000
Si       0.08677683       2.35906893      -2.84828342       0.00000000
Si       1.08499545      -1.76463054      -3.17607357       0.00000000
Si       0.42046119       0.16185744       3.79771122       0.00000000
