10
Lattice="16.28999089631971 0.0 0.0 0.0 16.28999089631971 0.0 0.0 0.0 34.529650657227435" Properties=species:S:1:pos:R:3:initial_magmoms:R:1 pbc="T T T"
Si       1.66661361       1.24768368       0.99966847       0.00000000
Si       1.13525010      -0.02006928      -2.03003383       0.00000000
Si      -0.16785216      -2.27074455       0.87871104       0.00000000
Si      -1.91453112       1.55519001      -0.42274675       0.00000000
Si      -1.58993658      -1.56845007       2.64984140       0.00000000
Si      -0.08676054      -3.27420855      -1.46057051       0.00000000
Si       1.96675686      -2.21495130      -2.10969377       0.00000000
Si       0.78400512       1.72530648       3.10535823       0.00000000
Si      -1.92979485       1.42646643      -2.85560371       0.00000000
Si       1.98151560       3.24622233      -0.28493884       0.00000000
