10
Lattice="16.28999089631971 0.0 0.0 0.0 16.28999089631971 0.0 0.0 0.0 34.529650657227435" Properties=species:S:1:pos:R:3:initial_magmoms:R:1 pbc="T T T"
Si       0.34174791       2.21583096      -0.63741771       0.00000000
Si      -2.14666362      -0.01620855       1.00156761       0.00000000
Si      -0.70827291      -1.28510181      -1.87603150       0.00000000
Si       1.40983434      -0.68346324       1.82109479       0.00000000
Si       1.76318073      -2.14539300      -1.58498091       0.00000000
Si       1.97035695      -2.69102655       0.71652518       0.00000000
Si      -1.14249915       2.07326088      -2.46790457       0.00000000
Si      -2.53009764       0.11784186      -2.45063974       0.00000000
Si      -0.37141200       3.32320759       1.29075359       0.00000000
Si      -1.82426823      -1.76127480       2.54635598       0.00000000
