10
Lattice="16.28999089631971 0.0 0.0 0.0 16.28999089631971 0.0 0.0 0.0 34.529650657227435" Properties=species:S:1:pos:R:3:initial_magmoms:R:1 pbc="T T T"
Si       2.08989297      -0.98547984      -0.23770225       0.00000000
Si      -0.33058926       1.32843062      -1.91069929       0.00000000
Si      -1.53772713      -1.78012233      -0.13756621       0.00000000
Si      -0.47918664       1.51244898       1.80838787       0.00000000
Si      -3.42241497      -0.62317395      -0.96531145       0.00000000
Si      -1.87416450       2.92549571      -1.14925101       0.00000000
Si      -2.02989690      -2.22840684       2.10285690       0.00000000
Si       2.03831883      -1.77968250      -2.53313112       0.00000000
Si      -2.86534584       1.15189915       2.09042622       0.00000000
Si      -3.45229083       1.52745207      -0.11197972       0.00000000
