10
Lattice="16.28999089631971 0.0 0.0 0.0 16.28999089631971 0.0 0.0 0.0 34.529650657227435" Properties=species:S:1:pos:R:3:initial_magmoms:R:1 pbc="T T T"
Si      -1.33384149      -1.35057093       1.37512684       0.00000000
Si       1.22104953      -1.48462134      -1.36452278       0.00000000
Si       1.38526902       1.35983650       1.36483700       0.00000000
Si      -1.34214939       1.29762662      -1.55606922       0.00000000
Si       2.28999933       0.27214669      -2.55176057       0.00000000
Si       0.56058777       2.11756096      -2.81679032       0.00000000
Si      -2.68209963      -2.69731410      -0.00081835       0.00000000
Si      -2.68586262       2.71418221      -0.02906708       0.00000000
Si      -2.68851789       0.00243404       2.72920785       0.00000000
Si       0.02391372      -2.70954789       2.72868990       0.00000000
