10
Lattice="16.28999089631971 0.0 0.0 0.0 16.28999089631971 0.0 0.0 0.0 34.529650657227435" Properties=species:S:1:pos:R:3:initial_magmoms:R:1 pbc="T T T"
Si       1.35485559       1.35734633      -1.35805192       0.00000000
Si       1.35728280      -1.35720640       1.35687791       0.00000000
Si      -1.35654975      -1.35866983      -1.35711962       0.00000000
Si      -1.35773892       1.35824228       1.35667073       0.00000000
Si      -0.00187335      -2.71167480      -2.71120063       0.00000000
Si      -0.00159642       2.71542734       2.71344505       0.00000000
Si      -2.71456560      -2.71436265      -0.00013812       0.00000000
Si      -0.00089595      -2.71532376       2.71365223       0.00000000
Si       2.71446786      -0.00067115       2.71520607       0.00000000
Si       2.71502172      -2.71470474      -0.00027624       0.00000000
