10
Lattice="16.28999089631971 0.0 0.0 0.0 16.28999089631971 0.0 0.0 0.0 34.529650657227435" Properties=species:S:1:pos:R:3:initial_magmoms:R:1 pbc="T T T"
Si      -1.35311256       1.35829441       1.36053806       0.00000000
Si      -1.35718506      -1.35653525      -1.35832816       0.00000000
Si       1.35984033      -1.35787233       1.35611826       0.00000000
Si       1.35765876       1.35884827      -1.35781021       0.00000000
Si       2.71331846      -2.71426165      -0.00169195       0.00000000
Si       0.00055386      -2.71403359      -2.71548230       0.00000000
Si      -2.71446786       0.00067115      -2.71520607       0.00000000
Si      -2.71536381      -2.71465261      -0.00155384       0.00000000
Si       2.71554204       0.00093179      -2.71572401       0.00000000
Si       2.71514782       2.71621252      -0.00082871       0.00000000
