10
Lattice="16.28999089631971 0.0 0.0 0.0 16.28999089631971 0.0 0.0 0.0 34.529650657227435" Properties=species:S:1:pos:R:3:initial_magmoms:R:1 pbc="T T T"
Si       1.35311256      -1.35829441      -1.36053806       0.00000000
Si       1.34412048       1.37173203       1.36419820       0.00000000
Si      -1.36295172       1.35780408      -1.36229907       0.00000000
Si      -1.36469475      -1.38816538       1.36033088       0.00000000
Si       2.50176933      -0.14287959       2.67670549       0.00000000
Si       2.71455088       2.71148679      -0.00224443       0.00000000
Si       2.71295289      -2.71616674      -0.00441980       0.00000000
Si       2.71077132       0.00055386      -2.71834827       0.00000000
Si      -2.71451673      -2.71660904      -0.00445433       0.00000000
Si      -0.00373041       2.71464705      -2.71862450       0.00000000
