10
Lattice="16.28999089631971 0.0 0.0 0.0 16.28999089631971 0.0 0.0 0.0 34.529650657227435" Properties=species:S:1:pos:R:3:initial_magmoms:R:1 pbc="T T T"
Si       1.54946312      -0.61480089      -1.56923818       0.00000000
Si       1.54384795       1.34254035       1.21699684       0.00000000
Si      -1.31572701      -1.58490297       1.19629285       0.00000000
Si      -1.39820328       0.97766064      -1.75459345       0.00000000
Si      -2.60521083       2.56140702      -0.41221800       0.00000000
Si      -2.58540219      -0.11201004       2.61399822       0.00000000
Si       0.14540454       2.61245988       2.63234038       0.00000000
Si      -2.63318076      -0.94222989      -2.58713832       0.00000000
Si       1.90570913      -2.89342980      -1.64509987       0.00000000
Si       0.14821903      -2.81349477       2.62256503       0.00000000
