10
Lattice="16.28999089631971 0.0 0.0 0.0 16.28999089631971 0.0 0.0 0.0 34.529650657227435" Properties=species:S:1:pos:R:3:initial_magmoms:R:1 pbc="T T T"
Si       1.31572701       1.58490297      -1.19629285       0.00000000
Si       1.46394604      -1.22859180       1.42627219       0.00000000
Si      -1.26967518       1.47289293       1.41770538       0.00000000
Si      -0.78429834      -1.95095556      -1.20562311       0.00000000
Si       0.10451664      -2.59242318       2.79749027       0.00000000
Si      -2.70172908      -2.71425609      -0.04625940       0.00000000
Si      -2.61283455       0.12663846       2.79838804       0.00000000
Si       2.76714062      -2.67532299       0.00276583       0.00000000
Si      -2.64429054       2.86562277      -0.01018280       0.00000000
Si      -0.08247627       2.56256361      -2.95088630       0.00000000
