10
Lattice="16.28999089631971 0.0 0.0 0.0 16.28999089631971 0.0 0.0 0.0 34.529650657227435" Properties=species:S:1:pos:R:3:initial_magmoms:R:1 pbc="T T T"
Si      -1.36383138      -1.34602641      -1.38474335       0.00000000
Si       1.35479374       1.36928853      -1.39271971       0.00000000
Si      -1.37365425       1.40155902       1.39496414       0.00000000
Si       1.34945529      -1.43138601       1.49230328       0.00000000
Si       2.68471810       2.71414206      -0.02489589       0.00000000
Si       2.72038343      -2.69562033      -0.01906038       0.00000000
Si      -2.72181465      -2.70788670       0.00587004       0.00000000
Si      -2.71829601       2.72205900      -0.03874229       0.00000000
Si      -0.00356751      -2.70461241      -2.74880344       0.00000000
Si       2.70968416       0.00770517      -2.75097881       0.00000000
