10
Lattice="16.28999089631971 0.0 0.0 0.0 16.28999089631971 0.0 0.0 0.0 34.529650657227435" Properties=species:S:1:pos:R:3:initial_magmoms:R:1 pbc="T T T"
Si      -1.94681790      -0.77959053       0.99697516       0.00000000
Si       0.79348590       1.66495203       1.45204168       0.00000000
Si      -1.34464176       1.32049998      -1.43370643       0.00000000
Si       1.37365425      -1.40155902      -1.39496414       0.00000000
Si      -0.56379690      -1.40763519       2.99807312       0.00000000
Si       2.56539807       2.53917117       0.01671236       0.00000000
Si       0.88747920       0.46685511       3.61542909       0.00000000
Si      -2.77278606       2.53482174      -0.01191274       0.00000000
Si      -0.89691111       3.49195698       1.28156870       0.00000000
Si       0.00661374       2.68319106      -2.78644078       0.00000000
