10
Lattice="16.28999089631971 0.0 0.0 0.0 16.28999089631971 0.0 0.0 0.0 34.529650657227435" Properties=species:S:1:pos:R:3:initial_magmoms:R:1 pbc="T T T"
Si       1.47450564      -0.12342933       1.81373997       0.00000000
Si      -1.64712425      -1.66993677       0.41542646       0.00000000
Si       0.90231939      -0.81720414      -2.06725681       0.00000000
Si      -0.97307338       2.27107035      -0.27375122       0.00000000
Si       1.64076138      -2.40132519       1.25708716       0.00000000
Si      -2.31619285       1.15279443      -1.89630041       0.00000000
Si      -0.94526472      -0.11143989      -3.40766407       0.00000000
Si      -3.47818283      -0.42885054      -0.50786239       0.00000000
Si       2.84210001       0.91496043      -2.17609433       0.00000000
Si      -1.76464031      -2.34610209       2.69966772       0.00000000
