10
Lattice="16.28999089631971 0.0 0.0 0.0 16.28999089631971 0.0 0.0 0.0 34.529650657227435" Properties=species:S:1:pos:R:3:initial_magmoms:R:1 pbc="T T T"
Si       1.35273789       1.34635468      -1.37635264       0.00000000
Si      -1.36925595      -1.36399428      -1.37531675       0.00000000
Si      -1.39271355       1.29298617       1.44561916       0.00000000
Si       1.18952838      -1.50801417       1.42783638       0.00000000
Si      -2.27278080      -0.55522836       2.69269272       0.00000000
Si      -0.58238379      -2.38223331       2.86316570       0.00000000
Si       2.69312537       2.69448396      -0.00037983       0.00000000
Si      -2.72490975       2.67435603      -0.01160197       0.00000000
Si       2.68250266      -2.73460230      -0.00873601       0.00000000
Si      -0.00710244       2.70422701      -2.73247090       0.00000000
