10
Lattice="16.28999089631971 0.0 0.0 0.0 16.28999089631971 0.0 0.0 0.0 34.529650657227435" Properties=species:S:1:pos:R:3:initial_magmoms:R:1 pbc="T T T"
Si       0.23425020       1.16141184       2.01901886       0.00000000
Si       2.13771131      -0.65637297      -0.74919025       0.00000000
Si      -1.51360164      -1.80292833       0.18773782       0.00000000
Si      -1.07750205       0.94731237      -1.90897280       0.00000000
Si       2.19817979       2.25719113       1.40660064       0.00000000
Si      -0.94784994      -1.10962593      -3.12749033       0.00000000
Si      -0.90376920      -3.01949811      -1.73159389       0.00000000
Si      -3.55447800      -0.56920518      -0.02548290       0.00000000
Si       2.30026922       0.47954502      -2.81862243       0.00000000
Si       3.68052092       0.64156536       0.52619764       0.00000000
