10
Lattice="16.28999089631971 0.0 0.0 0.0 16.28999089631971 0.0 0.0 0.0 34.529650657227435" Properties=species:S:1:pos:R:3:initial_magmoms:R:1 pbc="T T T"
Si      -0.56971017       2.26735623       0.00994454       0.00000000
Si       1.94237303      -0.02248020      -1.34707148       0.00000000
Si       1.03617432      -1.14587118       1.79595719       0.00000000
Si      -1.60840944      -1.17972180      -1.31364676       0.00000000
Si      -0.80532873       2.20392297      -2.40595834       0.00000000
Si       1.53779638      -3.04359102       0.35679508       0.00000000
Si       1.80510697      -2.31024780      -1.87758533       0.00000000
Si      -2.56054365      -2.56016898       0.35720944       0.00000000
Si       1.32017418       1.40017437      -3.08957675       0.00000000
Si      -2.41697988       0.46376001      -2.83864964       0.00000000
