10
Lattice="16.28999089631971 0.0 0.0 0.0 16.28999089631971 0.0 0.0 0.0 34.529650657227435" Properties=species:S:1:pos:R:3:initial_magmoms:R:1 pbc="T T T"
Si       0.56971017      -2.26735623      -0.00994454       0.00000000
Si       1.73372841       1.51849420       0.58469090       0.00000000
Si      -0.23561856      -0.06343326      -2.41590289       0.00000000
Si      -1.59182622       0.21615773       1.82841508       0.00000000
Si       0.76631418       3.35701781      -0.65578749       0.00000000
Si       2.51208320      -2.28983643      -1.35701603       0.00000000
Si       1.88988435      -0.86718186      -3.09952129       0.00000000
Si      -1.03869927      -3.44707803      -1.32359131       0.00000000
Si      -1.84726971      -1.80359622      -2.84859418       0.00000000
Si      -0.87651603       2.31359444       3.08305064       0.00000000
