10
Lattice="16.28999089631971 0.0 0.0 0.0 16.28999089631971 0.0 0.0 0.0 34.529650657227435" Properties=species:S:1:pos:R:3:initial_magmoms:R:1 pbc="T T T"
Si      -1.37437101      -1.82174328      -0.17561790       0.00000000
Si       0.18410958       1.73115459       1.49848409       0.00000000
Si       1.98384507      -1.14039774      -0.31901962       0.00000000
Si      -0.63517968       1.27171143      -1.82896756       0.00000000
Si      -0.83676843      -2.16709128      -2.50858052       0.00000000
Si       1.93561038       2.96176635       0.38352104       0.00000000
Si      -2.63527077       2.19924774      -1.00785201       0.00000000
Si       0.92962143       3.02958162      -1.84685393       0.00000000
Si      -1.68076962       3.14058168       0.98910240       0.00000000
Si       1.35477414      -3.44134395      -0.58299895       0.00000000
