10
Lattice="16.28999089631971 0.0 0.0 0.0 16.28999089631971 0.0 0.0 0.0 34.529650657227435" Properties=species:S:1:pos:R:3:initial_magmoms:R:1 pbc="T T T"
Si       1.34922088      -1.35029439       1.35504784       0.00000000
Si      -1.35569600      -1.35553977      -1.35601467       0.00000000
Si       1.35734959       1.35843939      -1.35639450       0.00000000
Si      -1.35489042       1.36158336       1.35825910       0.00000000
Si      -2.71325167      -2.71231758       0.00217537       0.00000000
Si       0.00065649      -2.71327869      -2.71347958       0.00000000
Si      -2.71395214       0.00162900      -2.71330694       0.00000000
Si       2.71572382       0.00171045      -2.71334146       0.00000000
Si      -2.71504357       2.71407690       0.00186460       0.00000000
Si       0.00064997       2.71658556      -2.71323788       0.00000000
