10
Lattice="16.28999089631971 0.0 0.0 0.0 16.28999089631971 0.0 0.0 0.0 34.529650657227435" Properties=species:S:1:pos:R:3:initial_magmoms:R:1 pbc="T T T"
Si      -1.35623209      -1.35861695       1.35601467       0.00000000
Si      -1.35605291       1.35770634      -1.35746491       0.00000000
Si       1.35896067       1.35656604       1.35601467       0.00000000
Si       1.35780408      -1.35782037      -1.36198830       0.00000000
Si      -2.71365654       2.71178001      -0.00110495       0.00000000
Si      -0.00780291       2.68996770      -2.73664209       0.00000000
Si       0.00115659       2.71448415       2.71354864       0.00000000
Si      -2.71411537      -0.00070047       2.71392847       0.00000000
Si      -2.71301510      -2.71658937      -0.00082871       0.00000000
Si       0.00079821      -2.71604046       2.71372129       0.00000000
