10
Lattice="16.28999089631971 0.0 0.0 0.0 16.28999089631971 0.0 0.0 0.0 34.529650657227435" Properties=species:S:1:pos:R:3:initial_magmoms:R:1 pbc="T T T"
Si      -1.00486983       2.09587140       0.26888254       0.00000000
Si       1.77730416      -0.24392646       1.62203125       0.00000000
Si      -1.45054957      -1.41304347      -1.48425786       0.00000000
Si       1.71476685       0.85786398      -1.94060198       0.00000000
Si      -1.06687608      -1.56732606       2.67442653       0.00000000
Si       0.58266072      -0.12717603       3.64250035       0.00000000
Si      -2.97501731       1.74739572       1.51668122       0.00000000
Si       0.27310185       3.33656667       1.82554912       0.00000000
Si       2.63735100      -2.42778015       1.30166497       0.00000000
Si      -1.09667049       3.26148606      -1.74789189       0.00000000
