10
Lattice="16.28999089631971 0.0 0.0 0.0 16.28999089631971 0.0 0.0 0.0 34.529650657227435" Properties=species:S:1:pos:R:3:initial_magmoms:R:1 pbc="T T T"
Si      -2.17875901      -0.76186701       0.37191908       0.00000000
Si       0.26731059       0.73334322      -2.23438041       0.00000000
Si      -0.50162206       1.89771984       1.43916211       0.00000000
Si       0.77442970      -2.31695928       0.18027941       0.00000000
Si      -1.53779638       3.04359102      -0.35679508       0.00000000
Si       2.34861385      -0.26339301      -2.55754359       0.00000000
Si       0.40457665       3.02111082      -1.70386656       0.00000000
Si      -2.37803458      -2.63085129      -0.99051811       0.00000000
Si       1.84658863      -2.47230072      -2.01501342       0.00000000
Si      -1.93642897       0.43901550      -3.15055615       0.00000000
