10
Lattice="16.28999089631971 0.0 0.0 0.0 16.28999089631971 0.0 0.0 0.0 34.529650657227435" Properties=species:S:1:pos:R:3:initial_magmoms:R:1 pbc="T T T"
Si       0.50202522       2.20890771      -0.54253017       0.00000000
Si       1.86487920      -1.40942709       0.50938169       0.00000000
Si      -0.95450115      -0.94133394      -1.99695440       0.00000000
Si      -1.07215893       0.15534144       2.19529283       0.00000000
Si      -2.37787478      -1.55919735       1.15857402       0.00000000
Si       1.04558994      -1.86887025      -2.81806995       0.00000000
Si      -1.57927803       3.20564394      -0.21936699       0.00000000
Si      -2.50110863      -2.44027458      -1.03060706       0.00000000
Si       0.80754417      -0.28002510       3.55223980       0.00000000
Si       3.61638000      -0.17881533      -0.60558135       0.00000000
