10
Lattice="16.28999089631971 0.0 0.0 0.0 16.28999089631971 0.0 0.0 0.0 34.529650657227435" Properties=species:S:1:pos:R:3:initial_magmoms:R:1 pbc="T T T"
Si      -1.51472565      -1.72068012       0.64553218       0.00000000
Si      -1.27032678       1.67848902      -1.24268829       0.00000000
Si      -0.21949146       1.60155135       1.92243937       0.00000000
Si       0.78866406      -1.75384656      -1.68004109       0.00000000
Si       2.26694898      -1.21810104       1.88390426       0.00000000
Si       2.84674266      -2.10598749      -0.32854981       0.00000000
Si      -1.67965701       3.23797959       0.71566194       0.00000000
Si      -1.52034081       0.23666112       3.43176720       0.00000000
Si      -3.36249125       0.69683733      -1.62102989       0.00000000
Si      -3.06418877      -1.10587923       2.21477036       0.00000000
