10
Lattice="16.28999089631971 0.0 0.0 0.0 16.28999089631971 0.0 0.0 0.0 34.529650657227435" Properties=species:S:1:pos:R:3:initial_magmoms:R:1 pbc="T T T"
Si      -1.54946312       0.61480089       1.56923818       0.00000000
Si       0.35624601      -2.27862891      -0.07586168       0.00000000
Si       1.51472565       1.72068012      -0.64553218       0.00000000
Si       2.30338971      -0.03316644      -2.32557327       0.00000000
Si      -2.94766640       1.59246153      -0.18535527       0.00000000
Si       1.30798926      -2.23252821      -2.16849780       0.00000000
Si      -0.00561516       1.95734124       2.78623502       0.00000000
Si       1.29523419       3.32223147       1.27690719       0.00000000
Si       1.85790708      -2.91893994       1.55166189       0.00000000
Si      -1.84776560       2.41751745      -2.26656207       0.00000000
