10
Lattice="16.28999089631971 0.0 0.0 0.0 16.28999089631971 0.0 0.0 0.0 34.529650657227435" Properties=species:S:1:pos:R:3:initial_magmoms:R:1 pbc="T T T"
Si      -1.35338460       1.35257499      -1.36475068       0.00000000
Si       1.36355445      -1.36434451      -1.36443991       0.00000000
Si      -1.36830461      -1.37338058       1.36816911       0.00000000
Si       1.36897902       1.36925595       1.38709137       0.00000000
Si      -2.70709411       2.70614367      -0.00562834       0.00000000
Si       2.72518668       2.70330921      -0.01287957       0.00000000
Si      -2.70869210      -2.72150986      -0.00780371       0.00000000
Si       0.00439830       2.71039536      -2.72211200       0.00000000
Si      -2.71087366      -0.00478926      -2.72173217       0.00000000
Si       2.71800279      -2.71916657      -0.00973737       0.00000000
