10
Lattice="16.28999089631971 0.0 0.0 0.0 16.28999089631971 0.0 0.0 0.0 34.529650657227435" Properties=species:S:1:pos:R:3:initial_magmoms:R:1 pbc="T T T"
Si      -1.35347813       1.35638932       1.35781021       0.00000000
Si      -1.35535906      -1.35718506      -1.35649808       0.00000000
Si       1.35925389       1.35776993      -1.35632544       0.00000000
Si       1.36216980      -1.35593073       1.36312778       0.00000000
Si      -2.71276460       0.00022806      -2.71379035       0.00000000
Si      -2.71331846       2.71426165       0.00169195       0.00000000
Si       0.00190267      -2.71441899      -2.71389394       0.00000000
Si       0.00222358       2.71519344      -2.71403206       0.00000000
Si      -2.71379087      -2.71692765       0.00120854       0.00000000
Si       2.71678104       0.00052128      -2.71396300       0.00000000
