10
Lattice="16.28999089631971 0.0 0.0 0.0 16.28999089631971 0.0 0.0 0.0 34.529650657227435" Properties=species:S:1:pos:R:3:initial_magmoms:R:1 pbc="T T T"
Si       1.35358497      -1.35948195      -1.36243719       0.00000000
Si      -1.36216980       1.35593073      -1.36312778       0.00000000
Si       1.36137159       1.35824391       1.38391464       0.00000000
Si      -1.38588315      -1.36863693       1.36229907       0.00000000
Si       2.71104696       2.71466334      -0.00725123       0.00000000
Si      -2.71564793       2.71232005      -0.00531757       0.00000000
Si      -2.71580752      -2.71349046      -0.00552475       0.00000000
Si       2.71208952      -0.00047241      -2.71928057       0.00000000
Si       2.71676475      -2.71469592      -0.00151931       0.00000000
Si      -0.00291591       2.71370066      -2.71945322       0.00000000
