10
Lattice="10.86 0.0 0.0 0.0 10.86 0.0 0.0 0.0 10.86" Properties=species:S:1:pos:R:3:initial_magmoms:R:1 pbc="T T T"
Si      -1.38019740       1.40496906      -1.28114334       0.00000000
Si      -1.38019740      -1.31003094       1.43385666       0.00000000
Si       1.33480260       1.40496906       1.43385666       0.00000000
Si       2.49136002       0.03278634      -2.64633222       0.00000000
Si      -2.56285140      -2.79535314       0.18733500       0.00000000
Si      -0.02269740       2.76246906      -2.63864334       0.00000000
Si       2.69230260       2.76246906       0.07635666       0.00000000
Si      -0.02269740      -2.66753094       2.79135666       0.00000000
Si       2.69230260       0.04746906       2.79135666       0.00000000
Si      -2.73769740       2.76246906       0.07635666       0.00000000
