10
Lattice="10.86 0.0 0.0 0.0 10.86 0.0 0.0 0.0 10.86" Properties=species:S:1:pos:R:3:initial_magmoms:R:1 pbc="T T T"
Si       1.21762320      -1.21762320      -1.24145004       0.00000000
Si      -1.30376472       1.30376472      -1.38350970       0.00000000
Si      -2.70646404       2.70646404      -0.00792780       0.00000000
Si       0.00853596       2.70646404       2.70707220       0.00000000
Si      -2.70646404      -0.00853596       2.70707220       0.00000000
Si       0.00853596       2.70646404      -2.72292780       0.00000000
Si      -2.70646404      -0.00853596      -2.72292780       0.00000000
Si       2.72353596       2.70646404      -0.00792780       0.00000000
Si      -2.70646404      -2.72353596      -0.00792780       0.00000000
Si       2.72353596      -0.00853596       2.70707220       0.00000000
