10
Lattice="16.28999089631971 0.0 0.0 0.0 16.28999089631971 0.0 0.0 0.0 34.395419527814205" Properties=species:S:1:pos:R:3:initial_magmoms:R:1 pbc="T T T"
Si      -1.34866539      -1.35685830      -1.36167759       0.00000000
Si       1.35777150      -1.35405308       1.35831027       0.00000000
Si      -1.35738054       1.35844753       1.35858544       0.00000000
Si       1.37668419       1.35587371      -1.38292021       0.00000000
Si      -2.58967669       0.07584461      -2.77217262       0.00000000
Si      -2.71512109      -2.70949845      -0.00189175       0.00000000
Si       0.00112401      -2.71290306       2.71569187       0.00000000
Si      -2.71093782       2.71775029       0.00096307       0.00000000
Si      -2.71352467       0.00154592       2.71586384       0.00000000
Si       2.71614573       0.00168601       2.71586384       0.00000000
