10
Lattice="16.28999089631971 0.0 0.0 0.0 16.28999089631971 0.0 0.0 0.0 34.395419527814205" Properties=species:S:1:pos:R:3:initial_magmoms:R:1 pbc="T T T"
Si      -0.26271209       2.26373985       0.09782063       0.00000000
Si       2.28032307      -0.45804222      -0.19381830       0.00000000
Si      -1.24030594      -0.25428690      -2.09481980       0.00000000
Si       0.27466569       0.62147979       2.48451538       0.00000000
Si      -0.27999904      -3.45304017       0.23130933       0.00000000
Si       2.17442178      -2.88956907       0.02067166       0.00000000
Si      -0.57647541       1.73253924      -3.18670300       0.00000000
Si       0.71438166       3.15097537      -1.76015218       0.00000000
Si      -1.76503430      -2.53998567       2.22930597       0.00000000
Si      -1.43945119       2.37555441       2.63168552       0.00000000
