10
Lattice="16.28999089631971 0.0 0.0 0.0 16.28999089631971 0.0 0.0 0.0 34.395419527814205" Properties=species:S:1:pos:R:3:initial_magmoms:R:1 pbc="T T T"
Si      -2.00250105       0.97931312       0.38550408       0.00000000
Si       0.97709375       0.88723552      -1.85797281       0.00000000
Si       0.26271209      -2.26373985      -0.09782063       0.00000000
Si      -1.17673910       0.11181456       2.53386489       0.00000000
Si       0.53737778      -1.64226006       2.38669475       0.00000000
Si      -0.31376332      -0.53120061      -3.28452363       0.00000000
Si      -0.97759385      -2.51802675      -2.19264043       0.00000000
Si      -3.46045605      -0.02941974      -1.22196675       0.00000000
Si       2.54303516      -2.72178207      -0.29163893       0.00000000
Si       3.30786695       0.42373548      -1.90564489       0.00000000
