10
Lattice="16.28999089631971 0.0 0.0 0.0 16.28999089631971 0.0 0.0 0.0 34.395419527814205" Properties=species:S:1:pos:R:3:initial_magmoms:R:1 pbc="T T T"
Si       1.34043894       1.36083402       1.38460558       0.00000000
Si      -1.35185823       1.30394934      -1.43044783       0.00000000
Si      -1.37668419      -1.35587371       1.38292021       0.00000000
Si       1.35107631      -1.43691809      -1.53056607       0.00000000
Si      -2.20757193      -0.40335669      -2.89712578       0.00000000
Si       2.68889256       2.70583416      -0.00060192       0.00000000
Si      -0.42391467      -2.37355889      -2.95810889       0.00000000
Si       2.70666495      -2.72060631      -0.00997468       0.00000000
Si      -2.73323394       2.69571807       0.01672650       0.00000000
Si      -2.72534958      -2.71273202       0.02124262       0.00000000
