10
Lattice="16.28999089631971 0.0 0.0 0.0 16.28999089631971 0.0 0.0 0.0 34.395419527814205" Properties=species:S:1:pos:R:3:initial_magmoms:R:1 pbc="T T T"
Si       1.39667202       1.36437872      -1.36618136       0.00000000
Si       1.35558864      -1.28368821       1.52059139       0.00000000
Si      -1.77499098      -0.93664079      -1.42754283       0.00000000
Si      -1.35107631       1.43691809       1.53056607       0.00000000
Si      -2.77259058      -2.61191972       0.08011730       0.00000000
Si       2.80751634      -2.60695127      -0.00024077       0.00000000
Si      -2.70293454       2.74086743       0.10011824       0.00000000
Si       2.67110388       2.81309729      -0.00029580       0.00000000
Si      -0.01065366      -2.63413928       2.90812059       0.00000000
Si      -3.55864824       1.03356140      -1.36655971       0.00000000
