10
Lattice="16.28999089631971 0.0 0.0 0.0 16.28999089631971 0.0 0.0 0.0 34.395419527814205" Properties=species:S:1:pos:R:3:initial_magmoms:R:1 pbc="T T T"
Si       1.76669937      -1.59547585      -0.03749103       0.00000000
Si      -1.91427048      -0.75041351      -1.29987242       0.00000000
Si       1.27290060       1.91326702      -0.85341963       0.00000000
Si      -0.24795009       0.25351475       2.44355516       0.00000000
Si       2.01383496      -2.43328684       2.17919181       0.00000000
Si       0.48770631       2.46403192       2.92866842       0.00000000
Si       3.76237098      -0.61114541      -0.68880306       0.00000000
Si       2.22239583       1.47389314      -3.04771104       0.00000000
Si      -3.56004918       1.03007209      -1.67282216       0.00000000
Si       3.83686515       1.00296553       1.02175090       0.00000000
