10
Lattice="16.28999089631971 0.0 0.0 0.0 16.28999089631971 0.0 0.0 0.0 34.395419527814205" Properties=species:S:1:pos:R:3:initial_magmoms:R:1 pbc="T T T"
Si       1.35682668       1.35654975       1.37338579       0.00000000
Si      -1.35799956      -1.35928647       1.37132207       0.00000000
Si      -1.39942503       1.21251357      -1.48485453       0.00000000
Si       1.26320805      -1.42081380      -1.43706895       0.00000000
Si      -2.37895902      -0.75310299      -2.68250488       0.00000000
Si      -0.46830492      -2.42691678      -2.79631963       0.00000000
Si       2.70026298       2.70283680      -0.00983366       0.00000000
Si      -2.71063971       2.71127502      -0.01673682       0.00000000
Si       2.70554094      -2.72932434      -0.01023952       0.00000000
Si      -0.00114030       2.71194291       2.73118013       0.00000000
