10
Lattice="16.28999089631971 0.0 0.0 0.0 16.28999089631971 0.0 0.0 0.0 34.395419527814205" Properties=species:S:1:pos:R:3:initial_magmoms:R:1 pbc="T T T"
Si       1.35656604       1.35747828      -1.35741599       0.00000000
Si      -1.35845568      -1.35772263      -1.35751918       0.00000000
Si      -1.35799956       1.35663120       1.36023642       0.00000000
Si       1.35764118      -1.35896067       1.36006444       0.00000000
Si       2.71373481      -2.71494027      -0.00110065       0.00000000
Si       2.71412577      -0.00011403      -2.71517593       0.00000000
Si      -0.00078192       2.71479366      -2.71507275       0.00000000
Si       2.71487511       2.71529865      -0.00110065       0.00000000
Si      -0.00102627      -2.71531494      -2.71496956       0.00000000
Si      -2.71511620      -2.71570590      -0.00048154       0.00000000
