10
Lattice="16.28999089631971 0.0 0.0 0.0 16.28999089631971 0.0 0.0 0.0 34.395419527814205" Properties=species:S:1:pos:R:3:initial_magmoms:R:1 pbc="T T T"
Si       1.04915745       1.43953101      -1.49114546       0.00000000
Si      -1.23878934       1.78829991       1.12992456       0.00000000
Si       1.93350897      -1.10806209       1.14825733       0.00000000
Si      -1.72700064      -1.28358684      -1.32845503       0.00000000
Si       2.85899274       2.28547071      -0.08915298       0.00000000
Si       2.36424915       0.05512536      -2.86503686       0.00000000
Si      -0.37152603      -2.64906351      -2.85513098       0.00000000
Si       2.63977821      -2.96243424      -0.14246591       0.00000000
Si      -3.11211491      -2.52268569       0.19557246       0.00000000
Si      -0.36012303       2.78171298      -2.86909552       0.00000000
