10
Lattice="16.28999089631971 0.0 0.0 0.0 16.28999089631971 0.0 0.0 0.0 34.395419527814205" Properties=species:S:1:pos:R:3:initial_magmoms:R:1 pbc="T T T"
Si       1.35725022       1.35689184      -1.35621215       0.00000000
Si      -1.35581670       1.35410625       1.36233454       0.00000000
Si      -1.35830907      -1.35782037      -1.35631534       0.00000000
Si       1.35749457      -1.35899325       1.36037400       0.00000000
Si       2.71404432      -0.00019548      -2.71404089       0.00000000
Si      -0.00079821       2.71437012      -2.71417847       0.00000000
Si      -0.00074934      -2.71541268      -2.71407528       0.00000000
Si      -2.71565703      -0.00050499      -2.71397209       0.00000000
Si       2.71528236      -2.71479366      -0.00055033       0.00000000
Si      -2.71487511      -2.71529865       0.00110065       0.00000000
