10
Lattice="16.28999089631971 0.0 0.0 0.0 16.28999089631971 0.0 0.0 0.0 34.395419527814205" Properties=species:S:1:pos:R:3:initial_magmoms:R:1 pbc="T T T"
Si      -2.11985028      -0.81443484      -0.39857434       0.00000000
Si      -0.30885840       0.98328069       2.09557650       0.00000000
Si       1.05420735       1.52407611      -1.42888971       0.00000000
Si       1.23044886      -1.97783406       0.29232683       0.00000000
Si      -1.62189756      -1.42868187      -2.62595417       0.00000000
Si       0.30028986      -0.79060257       3.45856455       0.00000000
Si      -2.10981564      -2.75504625       0.91994040       0.00000000
Si       1.33032285       2.64505617       2.04945222       0.00000000
Si       1.08318726       3.48286716      -0.16723062       0.00000000
Si      -0.23829012      -3.73357026      -0.11773559       0.00000000
