10
Lattice="16.28999089631971 0.0 0.0 0.0 16.28999089631971 0.0 0.0 0.0 34.395419527814205" Properties=species:S:1:pos:R:3:initial_magmoms:R:1 pbc="T T T"
Si      -0.01003464       1.94061141      -1.31851475       0.00000000
Si       1.87152552      -0.97852401      -1.03767599       0.00000000
Si      -2.03988267      -1.18128564      -0.32139098       0.00000000
Si       0.57363606       0.53392104       2.25503376       0.00000000
Si       3.34026450       0.77721219      -0.62761357       0.00000000
Si       2.10981564       2.75504625      -0.91994040       0.00000000
Si       1.37378457      -1.46899962       3.12571989       0.00000000
Si      -1.55750319      -2.80223838      -1.91799285       0.00000000
Si      -1.12169682       1.91097990       3.04499380       0.00000000
Si      -1.58324139       3.40664625      -0.29470012       0.00000000
