10
Lattice="16.28999089631971 0.0 0.0 0.0 16.28999089631971 0.0 0.0 0.0 34.395419527814205" Properties=species:S:1:pos:R:3:initial_magmoms:R:1 pbc="T T T"
Si      -0.97081884      -0.19828188      -2.10011670       0.00000000
Si       2.25243459       0.07291404      -0.64109658       0.00000000
Si      -0.20551464       2.42748693       0.39919346       0.00000000
Si      -0.39289851      -2.51198316       0.59865261       0.00000000
Si       0.54459099       1.40919903       2.62069166       0.00000000
Si      -1.35387819      -2.51283024      -1.71502537       0.00000000
Si       3.12847821      -1.55040075       0.74400774       0.00000000
Si       2.30066928      -0.53225946       2.76007786       0.00000000
Si      -2.53749330      -1.30826619       2.34948363       0.00000000
Si      -3.03384960       0.92377332      -2.04855794       0.00000000
