10
Lattice="16.28999089631971 0.0 0.0 0.0 16.28999089631971 0.0 0.0 0.0 34.395419527814205" Properties=species:S:1:pos:R:3:initial_magmoms:R:1 pbc="T T T"
Si       0.11940570      -2.29843755      -0.62967730       0.00000000
Si       1.17178857      -0.33953247       2.09358157       0.00000000
Si       0.98271054       1.20488985      -1.88125852       0.00000000
Si      -2.23340787       1.04423787       0.14229393       0.00000000
Si      -1.50431634      -3.29229045       0.89651711       0.00000000
Si       2.44652994      -2.76527637      -1.01868971       0.00000000
Si      -0.81119313       1.11149928      -3.60460759       0.00000000
Si       1.20076848       1.61925858       3.35524065       0.00000000
Si      -2.31112746       2.36259704      -2.16835725       0.00000000
Si       3.44098557       0.84460392      -1.80620768       0.00000000
