10
Lattice="16.28999089631971 0.0 0.0 0.0 16.28999089631971 0.0 0.0 0.0 34.395419527814205" Properties=species:S:1:pos:R:3:initial_magmoms:R:1 pbc="T T T"
Si      -1.35485321       1.35351509      -1.35961730       0.00000000
Si      -1.35728042      -1.35777200       1.35576501       0.00000000
Si       1.35804008       1.35745890       1.35576501       0.00000000
Si       1.35644366      -1.35358547      -1.36199058       0.00000000
Si      -2.69596004      -0.00910576      -2.71790005       0.00000000
Si      -2.71433516      -0.00057831       2.71283705       0.00000000
Si      -0.00009982      -2.71448465       2.71331858       0.00000000
Si       2.71508016       0.00018210       2.71287144       0.00000000
Si       0.00063274       2.71484922       2.71311221       0.00000000
Si       2.71418421       2.71436052      -0.00151340       0.00000000
