10
Lattice="16.28999089631971 0.0 0.0 0.0 16.28999089631971 0.0 0.0 0.0 34.395419527814205" Properties=species:S:1:pos:R:3:initial_magmoms:R:1 pbc="T T T"
Si      -2.24368686       0.87578298       0.15643046       0.00000000
Si       0.20551464      -2.42748693      -0.39919346       0.00000000
Si       0.75010563      -1.01828790       2.22149820       0.00000000
Si       0.91368981       1.34270325      -2.18056763       0.00000000
Si       2.45794923      -2.35457289      -1.04029004       0.00000000
Si       3.58679736      -0.35779356      -0.51314555       0.00000000
Si      -0.76530420      -2.62576881      -2.49931016       0.00000000
Si      -3.69453942      -1.16206344      -0.30068493       0.00000000
Si      -2.92970763       1.98345411      -1.91469089       0.00000000
Si      -2.82833496      -1.50371361      -2.44775140       0.00000000
