10
Lattice="16.28999089631971 0.0 0.0 0.0 16.28999089631971 0.0 0.0 0.0 34.395419527814205" Properties=species:S:1:pos:R:3:initial_magmoms:R:1 pbc="T T T"
Si       1.40294367      -1.26233147       1.36860483       0.00000000
Si       1.07779527       1.70884055      -1.20892710       0.00000000
Si      -1.33866333       1.46611955       1.34326915       0.00000000
Si      -0.72527967      -1.66702479      -1.64465028       0.00000000
Si      -0.53620164       0.14283886      -3.40741651       0.00000000
Si      -2.58424560      -2.58530838      -0.18732100       0.00000000
Si       0.02596626      -2.61212172       2.72767868       0.00000000
Si       2.66395257      -2.73276546      -0.02131485       0.00000000
Si      -2.69047269       0.10856796       2.72324167       0.00000000
Si       2.74405050       0.10028938       2.72688758       0.00000000
