10
Lattice="16.28999089631971 0.0 0.0 0.0 16.28999089631971 0.0 0.0 0.0 34.395419527814205" Properties=species:S:1:pos:R:3:initial_magmoms:R:1 pbc="T T T"
Si      -1.36624230      -1.35045107       1.38752920       0.00000000
Si       1.34570061       1.37061328       1.38973050       0.00000000
Si      -1.35558864       1.28368821      -1.52059139       0.00000000
Si       1.45192770      -1.32326306      -1.52083216       0.00000000
Si       2.70378162      -2.70408491       0.01890373       0.00000000
Si       2.69750997       2.72816487       0.00975799       0.00000000
Si      -2.70666495       2.72060631       0.00997468       0.00000000
Si      -2.71972953      -2.71866446      -0.00626341       0.00000000
Si       2.70570384       0.00840087       2.75027648       0.00000000
Si      -0.01057221      -2.70763613       2.75227142       0.00000000
