10
Lattice="16.28999089631971 0.0 0.0 0.0 16.28999089631971 0.0 0.0 0.0 34.395419527814205" Properties=species:S:1:pos:R:3:initial_magmoms:R:1 pbc="T T T"
Si      -1.35682668       1.35725491      -1.35724401       0.00000000
Si       1.35765747       1.35747808       1.35738159       0.00000000
Si      -1.35752715      -1.35765997       1.35824148       0.00000000
Si       1.35829278      -1.35790432      -1.35748478       0.00000000
Si      -0.00061902       2.71461916      -2.71342177       0.00000000
Si      -2.71450044       2.71434223      -0.00006879       0.00000000
Si      -2.71466334      -2.71499164       0.00010319       0.00000000
Si      -2.71520091       0.00151582      -2.71479759       0.00000000
Si       0.00125433       2.71473319       2.71555428       0.00000000
Si       2.71503801       2.71531963       0.00003440       0.00000000
