10
Lattice="16.28999089631971 0.0 0.0 0.0 16.28999089631971 0.0 0.0 0.0 34.395419527814205" Properties=species:S:1:pos:R:3:initial_magmoms:R:1 pbc="T T T"
Si      -0.24542514      -0.78417454       2.21905613       0.00000000
Si       1.93122837       0.76888800      -1.19971290       0.00000000
Si      -0.79415379      -1.97115842      -1.26375721       0.00000000
Si      -1.85741838       1.63124802       0.05613336       0.00000000
Si      -2.48257971       0.08578314       2.17200317       0.00000000
Si       0.57826242       1.93723938      -2.70076425       0.00000000
Si      -2.15102934      -0.78410775      -2.70076425       0.00000000
Si      -0.64299888       3.29936031      -1.29636409       0.00000000
Si      -0.25446609      -3.15972962       1.96521779       0.00000000
Si      -3.47661180       0.56045745      -1.34135332       0.00000000
