10
Lattice="16.28999089631971 0.0 0.0 0.0 16.28999089631971 0.0 0.0 0.0 34.395419527814205" Properties=species:S:1:pos:R:3:initial_magmoms:R:1 pbc="T T T"
Si       0.94949523      -0.43937388      -2.19429141       0.00000000
Si      -1.27290060      -1.91326702       0.85341963       0.00000000
Si      -1.38681657       1.78518852      -0.98983194       0.00000000
Si       2.56396455      -0.91030149       1.87517053       0.00000000
Si       0.76044978       2.90269881      -1.50940943       0.00000000
Si       1.83013263       2.85066855       0.64790688       0.00000000
Si       2.48947038      -2.52441243       0.16461657       0.00000000
Si       0.49379877      -3.50874287       0.81592860       0.00000000
Si      -3.07436283       1.89213237       0.83082182       0.00000000
Si       3.39304410       1.07890299       1.11633836       0.00000000
