10
Lattice="16.28999089631971 0.0 0.0 0.0 16.28999089631971 0.0 0.0 0.0 34.395419527814205" Properties=species:S:1:pos:R:3:initial_magmoms:R:1 pbc="T T T"
Si       0.31167657       1.87738992       1.34640945       0.00000000
Si       1.60177941      -1.67415588       0.29752055       0.00000000
Si      -2.00795427      -1.23595488       0.08832749       0.00000000
Si       0.12080664       0.51210873      -2.32894955       0.00000000
Si      -1.29754737      -2.73126285      -1.53809523       0.00000000
Si       1.03674447      -2.99490835      -1.55034001       0.00000000
Si      -0.14672403       2.85835743      -2.28997952       0.00000000
Si      -1.41957576      -1.07849574      -3.22037614       0.00000000
Si       2.19367656       1.35980775       2.65852665       0.00000000
Si       0.42702606       3.68271288      -0.13455496       0.00000000
