10
Lattice="16.28999089631971 0.0 0.0 0.0 16.28999089631971 0.0 0.0 0.0 34.395419527814205" Properties=species:S:1:pos:R:3:initial_magmoms:R:1 pbc="T T T"
Si       1.33620354       1.34495127      -1.38596420       0.00000000
Si      -1.37902995      -1.36857177      -1.38678969       0.00000000
Si      -1.24478406       1.41499827       1.47229676       0.00000000
Si       1.39305564      -1.25724591       1.53114735       0.00000000
Si      -2.23607943      -0.37434420       2.74719809       0.00000000
Si      -0.44233866      -2.11525650       2.89451375       0.00000000
Si       2.69941590       2.70032814      -0.00622557       0.00000000
Si      -2.72173320       2.69619048      -0.00646634       0.00000000
Si       2.69770545      -2.73212622       0.01761046       0.00000000
Si       2.69757513      -0.01003464      -2.74375854       0.00000000
