10
Lattice="16.28999089631971 0.0 0.0 0.0 16.28999089631971 0.0 0.0 0.0 34.395419527814205" Properties=species:S:1:pos:R:3:initial_magmoms:R:1 pbc="T T T"
Si      -0.34391448      -2.00319759       1.23084078       0.00000000
Si      -0.53295993       1.33887510       1.91572275       0.00000000
Si       2.35019088      -0.40011498      -0.32290438       0.00000000
Si      -1.00862793      -3.11138023      -0.74160005       0.00000000
Si       2.09929230       0.22053402      -2.71589824       0.00000000
Si      -0.68988150       3.34479312       0.65736563       0.00000000
Si       0.30555153       1.96144632      -2.86321390       0.00000000
Si      -1.47347937       2.78821269      -1.52750143       0.00000000
Si      -2.68022628       0.22136481       2.43530025       0.00000000
Si       1.74780297      -2.91765955       1.60864027       0.00000000
