10
Lattice="16.28999089631971 0.0 0.0 0.0 16.28999089631971 0.0 0.0 0.0 34.395419527814205" Properties=species:S:1:pos:R:3:initial_magmoms:R:1 pbc="T T T"
Si      -1.76674824       0.85700061       1.31734530       0.00000000
Si       0.15692157      -2.00591802       1.25835713       0.00000000
Si      -0.78359787      -0.55658043      -2.18486706       0.00000000
Si       1.91532933       1.44340803       0.48734897       0.00000000
Si       0.68988150      -3.34479312      -0.65736563       0.00000000
Si      -3.18291939      -0.95360031       1.18065783       0.00000000
Si       1.13603202       3.48809625      -0.79023521       0.00000000
Si       1.92788892       1.78930989       2.83480327       0.00000000
Si       0.99543303      -1.38334680      -3.52057953       0.00000000
Si      -1.43120682       0.65619378       3.63319020       0.00000000
