10
Lattice="16.28999089631971 0.0 0.0 0.0 16.28999089631971 0.0 0.0 0.0 34.395419527814205" Properties=species:S:1:pos:R:3:initial_magmoms:R:1 pbc="T T T"
Si      -1.35889551       1.35311256       1.36133707       0.00000000
Si       1.35707103      -1.35985662       1.36078674       0.00000000
Si       1.35545832       1.35666378      -1.37203061       0.00000000
Si      -1.37137365      -1.37064060      -1.38115572       0.00000000
Si       2.61110781      -0.11282454      -2.74635540       0.00000000
Si       2.71381626       2.71067229       0.00323317       0.00000000
Si      -2.71456560       2.71029762      -0.00340515       0.00000000
Si      -0.00040725       2.71200807       2.71758362       0.00000000
Si      -2.71480995      -2.71692765       0.00206373       0.00000000
Si       2.71437012      -0.00259011       2.71778999       0.00000000
