10
Lattice="16.28999089631971 0.0 0.0 0.0 16.28999089631971 0.0 0.0 0.0 34.395419527814205" Properties=species:S:1:pos:R:3:initial_magmoms:R:1 pbc="T T T"
Si      -1.35552348       1.35746199      -1.35865423       0.00000000
Si      -1.35624024      -1.35858600       1.35693445       0.00000000
Si       1.35855342       1.35663120       1.35696885       0.00000000
Si       1.35883035      -1.35863487      -1.36288487       0.00000000
Si      -2.71349046       2.71285515      -0.00085989       0.00000000
Si      -2.71379997      -0.00099369       2.71469440       0.00000000
Si       0.00175932       2.71371852       2.71479759       0.00000000
Si       2.71603170      -0.00073305       2.71417847       0.00000000
Si       0.00141723      -2.71586880       2.71448803       0.00000000
Si       2.71635750       2.71453302       0.00006879       0.00000000
