10
Lattice="16.28999089631971 0.0 0.0 0.0 16.28999089631971 0.0 0.0 0.0 34.395419527814205" Properties=species:S:1:pos:R:3:initial_magmoms:R:1 pbc="T T T"
Si      -1.89035676       0.62262009       1.20844935       0.00000000
Si       0.84154140      -2.03844915       0.79364035       0.00000000
Si       1.36850661       1.75009986       0.76251248       0.00000000
Si      -0.01255959      -0.34590186      -2.34745430       0.00000000
Si       2.40831360      -0.75171834      -2.43677925       0.00000000
Si       0.31780161       3.54807603      -0.55132449       0.00000000
Si      -3.35909574      -1.13311611       0.79838692       0.00000000
Si      -1.12233213       0.53805870       3.42396274       0.00000000
Si       2.51401941      -2.58437592      -0.86494210       0.00000000
Si       0.69675588       2.07018207       3.05668825       0.00000000
