10
Lattice="16.28999089631971 0.0 0.0 0.0 16.28999089631971 0.0 0.0 0.0 34.395419527814205" Properties=species:S:1:pos:R:3:initial_magmoms:R:1 pbc="T T T"
Si       0.01255959       0.34590186       2.34745430       0.00000000
Si      -1.91532933      -1.44340803      -0.48734897       0.00000000
Si       2.42087319      -0.40581648      -0.08932495       0.00000000
Si      -0.77929731       2.04468822      -1.27758418       0.00000000
Si       0.85410099      -1.69254729       3.14109465       0.00000000
Si       2.52657900      -2.23847406       1.48251220       0.00000000
Si      -3.68207757      -0.58640742       0.82999633       0.00000000
Si       2.88018603      -0.34015149      -2.48837241       0.00000000
Si       0.65537928       3.76753491      -0.54929516       0.00000000
Si      -1.75840776      -3.44932605       0.77100816       0.00000000
