10
Lattice="16.28999089631971 0.0 0.0 0.0 16.28999089631971 0.0 0.0 0.0 34.395419527814205" Properties=species:S:1:pos:R:3:initial_magmoms:R:1 pbc="T T T"
Si      -1.23359283       1.16761833       1.57293781       0.00000000
Si       1.34719929       1.36588392      -1.34812922       0.00000000
Si      -1.36795275      -1.35107631      -1.34489605       0.00000000
Si       1.36640520      -1.27664730       1.41939657       0.00000000
Si       0.43482897       2.16411021       2.84030654       0.00000000
Si      -0.18205704      -2.30946588       2.81898137       0.00000000
Si      -1.96128342      -0.71977365       3.07591530       0.00000000
Si       2.70371646       0.00721647      -2.70516686       0.00000000
Si      -0.00869886      -2.70664866      -2.70537323       0.00000000
Si       2.70734913      -2.71041165       0.03326039       0.00000000
