10
Lattice="16.28999089631971 0.0 0.0 0.0 16.28999089631971 0.0 0.0 0.0 34.395419527814205" Properties=species:S:1:pos:R:3:initial_magmoms:R:1 pbc="T T T"
Si      -1.15973397      -1.97863783      -0.54097146       0.00000000
Si      -0.85253715       0.95092386       1.98805636       0.00000000
Si       2.44253889      -0.13484862      -0.07123295       0.00000000
Si      -0.25014924       3.46846843       0.05651171       0.00000000
Si       0.36818658      -2.51076697      -2.43017533       0.00000000
Si      -3.60896805       0.75720318      -0.36218397       0.00000000
Si      -2.94425460       1.86538582       1.61025686       0.00000000
Si       2.88199422      -2.26649842       1.28982895       0.00000000
Si       3.22124976       0.17524945      -2.36179720       0.00000000
Si       0.63801414       2.41426108       3.13517864       0.00000000
