10
Lattice="16.28999089631971 0.0 0.0 0.0 16.28999089631971 0.0 0.0 0.0 34.395419527814205" Properties=species:S:1:pos:R:3:initial_magmoms:R:1 pbc="T T T"
Si       1.10065014       0.27177910      -2.03132582       0.00000000
Si       1.46113155       0.79980316       1.68231530       0.00000000
Si      -1.85181462       1.44234592      -0.52518395       0.00000000
Si      -0.22991706      -2.38774977      -0.20719812       0.00000000
Si      -0.06775011       0.91678165       3.41897540       0.00000000
Si       1.02542292       2.65844329      -2.22462819       0.00000000
Si       3.20436422      -0.76184909      -1.50187683       0.00000000
Si      -3.34236591      -0.02099129      -1.67230623       0.00000000
Si      -2.34999540      -2.91468240       0.58293390       0.00000000
Si      -1.98628857      -0.44736575       3.26440230       0.00000000
