10
Lattice="16.28999089631971 0.0 0.0 0.0 16.28999089631971 0.0 0.0 0.0 34.395419527814205" Properties=species:S:1:pos:R:3:initial_magmoms:R:1 pbc="T T T"
Si      -1.52888166       0.11697849       1.73666010       0.00000000
Si       1.54953153      -1.62735308       0.69361842       0.00000000
Si      -1.46113155      -0.79980316      -1.68231530       0.00000000
Si       1.46106380       1.86240312      -0.16822809       0.00000000
Si       0.04502911      -0.25014924       3.47486799       0.00000000
Si       0.52573924      -2.46926168       2.58461085       0.00000000
Si       0.61624323       2.97323451      -2.05055287       0.00000000
Si       1.81542995      -2.94556499      -1.21164812       0.00000000
Si       3.28622147      -0.34586928       1.67825664       0.00000000
Si       3.62344076       0.85050090      -0.32930193       0.00000000
