10
Lattice="16.28999089631971 0.0 0.0 0.0 16.28999089631971 0.0 0.0 0.0 34.395419527814205" Properties=species:S:1:pos:R:3:initial_magmoms:R:1 pbc="T T T"
Si      -0.47540736      -0.14887594       2.27587739       0.00000000
Si       0.03512124      -2.31930571      -0.38897802       0.00000000
Si       1.91853846       1.36414741       0.15457310       0.00000000
Si      -1.83332547       0.86990881      -1.24504609       0.00000000
Si       0.37020654       3.10678645      -0.09063198       0.00000000
Si       2.02083966      -2.55391429       0.81386487       0.00000000
Si      -2.93172759       1.76753668       0.60584126       0.00000000
Si       0.90417645      -2.01085456       2.78269418       0.00000000
Si      -1.90781964      -0.74420213      -2.95560005       0.00000000
Si      -2.80969920       0.11476957       2.28812217       0.00000000
