10
Lattice="16.28999089631971 0.0 0.0 0.0 16.28999089631971 0.0 0.0 0.0 34.395419527814205" Properties=species:S:1:pos:R:3:initial_magmoms:R:1 pbc="T T T"
Si       1.52888166      -0.11697849      -1.73666010       0.00000000
Si      -1.54833192       1.74263904      -0.24520508       0.00000000
Si      -1.91853846      -1.36414741      -0.15457310       0.00000000
Si       1.57391077      -0.36712773       1.73820789       0.00000000
Si       2.05462090      -2.58624017       0.84795075       0.00000000
Si      -2.39394582      -1.51302334       2.12130429       0.00000000
Si       0.06775011      -0.91678165      -3.41897540       0.00000000
Si       3.07841319      -1.74433157      -1.04304168       0.00000000
Si      -0.34801956       3.64959531      -0.59349330       0.00000000
Si       0.51093585      -0.33138747       3.83185825       0.00000000
