10
Lattice="16.28999089631971 0.0 0.0 0.0 16.28999089631971 0.0 0.0 0.0 34.395419527814205" Properties=species:S:1:pos:R:3:initial_magmoms:R:1 pbc="T T T"
Si       0.47540736       0.14887594      -2.27587739       0.00000000
Si       0.56503494       1.32075247       1.84786055       0.00000000
Si      -2.33429184       0.26364551       0.01224478       0.00000000
Si       1.37958381      -1.86197862       0.50681679       0.00000000
Si      -0.56855358      -3.09562032       0.84795075       0.00000000
Si       0.51052860      -2.17042977      -2.66485541       0.00000000
Si      -1.03674447       2.99490835       1.55034001       0.00000000
Si       0.05256783      -0.31157883       3.51965085       0.00000000
Si      -2.45632023       1.91641262      -1.67003613       0.00000000
Si       2.39394582       1.51302334      -2.12130429       0.00000000
