10
Lattice="16.28999089631971 0.0 0.0 0.0 16.28999089631971 0.0 0.0 0.0 34.395419527814205" Properties=species:S:1:pos:R:3:initial_magmoms:R:1 pbc="T T T"
Si       2.00250105      -0.97931312      -0.38550408       0.00000000
Si      -0.18230139       2.37936627      -0.03491137       0.00000000
Si      -1.45795500      -1.00873286      -1.60747083       0.00000000
Si       0.82576195      -0.86749856       2.14836081       0.00000000
Si       2.97959480      -0.09207760      -2.24347689       0.00000000
Si       0.55992299       2.84126922      -2.36313862       0.00000000
Si      -0.48663117      -0.65048318      -3.68185974       0.00000000
Si      -2.52916911       2.81738808      -0.17500399       0.00000000
Si       1.96986892       0.94280656       3.28477613       0.00000000
Si      -0.94697028      -1.96849079       3.30922785       0.00000000
