10
Lattice="16.28999089631971 0.0 0.0 0.0 16.28999089631971 0.0 0.0 0.0 34.395419527814205" Properties=species:S:1:pos:R:3:initial_magmoms:R:1 pbc="T T T"
Si      -1.35963412      -1.34957763      -1.37629909       0.00000000
Si       1.35368434       1.36614456      -1.37650546       0.00000000
Si      -1.36201246       1.32054885       1.42379919       0.00000000
Si       1.34448049      -1.33178895       1.52664155       0.00000000
Si       2.69995510      -2.69726562      -0.00003440       0.00000000
Si      -2.71877398      -2.71101438       0.02435197       0.00000000
Si      -2.71706353       2.72143998       0.00051593       0.00000000
Si      -0.00343230      -2.70619254      -2.73722341       0.00000000
Si       2.71135810       2.73351087      -0.01399894       0.00000000
Si       2.71168390       0.00951336      -2.73674188       0.00000000
