10
Lattice="16.28999089631971 0.0 0.0 0.0 16.28999089631971 0.0 0.0 0.0 34.395419527814205" Properties=species:S:1:pos:R:3:initial_magmoms:R:1 pbc="T T T"
Si      -1.33620354      -1.34495127       1.38596420       0.00000000
Si      -1.35283563       1.35913986      -1.35889499       0.00000000
Si       1.36137159      -1.35498591      -1.35779434       0.00000000
Si       1.36321236       1.35537687       1.37973863       0.00000000
Si      -2.71208952       2.71471221       0.00158219       0.00000000
Si      -2.71163340       0.00118917      -2.71545110       0.00000000
Si      -2.71523349      -2.71352304      -0.00082549       0.00000000
Si       0.00360009      -2.71386513      -2.71538231       0.00000000
Si       0.00299736       2.71617831      -2.71524473       0.00000000
Si       2.71840163       0.00079821      -2.71527912       0.00000000
