10
Lattice="16.28999089631971 0.0 0.0 0.0 16.28999089631971 0.0 0.0 0.0 34.395419527814205" Properties=species:S:1:pos:R:3:initial_magmoms:R:1 pbc="T T T"
Si      -0.12671991       2.22304743       0.86573319       0.00000000
Si       1.46885205      -1.14328107      -1.50913427       0.00000000
Si      -0.33303276      -1.12529691       2.11366850       0.00000000
Si      -1.19876481       1.65327210      -1.50868713       0.00000000
Si       2.20904522       2.49238629       1.43714462       0.00000000
Si      -2.56416003      -0.47227968       2.53377439       0.00000000
Si       2.82866795      -2.54404188      -0.10889596       0.00000000
Si      -2.51393796       0.19147266      -3.02191446       0.00000000
Si       0.18260668      -2.63950128      -2.97909214       0.00000000
Si       2.67917462       0.63548919       2.89743736       0.00000000
