10
Lattice="16.28999089631971 0.0 0.0 0.0 16.28999089631971 0.0 0.0 0.0 34.395419527814205" Properties=species:S:1:pos:R:3:initial_magmoms:R:1 pbc="T T T"
Si       1.36201246      -1.32054885      -1.42379919       0.00000000
Si      -1.34623818      -1.09488348       1.62731700       0.00000000
Si       1.44374753       1.42254054       1.29732716       0.00000000
Si      -1.35505107       1.40089113      -1.42328326       0.00000000
Si      -2.66141133      -2.55668292       0.11408967       0.00000000
Si       2.70649295      -2.65233780       0.10284236       0.00000000
Si       0.00237834      -2.67012648      -2.80009827       0.00000000
Si      -2.49046407       0.81282213       2.84969650       0.00000000
Si       2.71569680       0.04559571      -2.80030465       0.00000000
Si      -2.71826343       0.04551426      -2.80302189       0.00000000
