10
Lattice="16.28999089631971 0.0 0.0 0.0 16.28999089631971 0.0 0.0 0.0 34.395419527814205" Properties=species:S:1:pos:R:3:initial_magmoms:R:1 pbc="T T T"
Si       1.20031236       1.90695627      -0.34828821       0.00000000
Si       1.54833192      -1.74263904       0.24520508       0.00000000
Si      -1.37445246      -0.24767316      -1.91324628       0.00000000
Si      -1.76155173       0.25135470       1.58789983       0.00000000
Si      -0.37020654      -3.10678645       0.09063198       0.00000000
Si      -2.20353201      -2.23687764      -1.15441411       0.00000000
Si      -0.46393920       3.50168211       0.07849039       0.00000000
Si      -3.30193413      -1.33924977       0.69647324       0.00000000
Si      -2.02908240       2.59760340       1.62686986       0.00000000
Si       2.79899667       2.10891969       1.29557299       0.00000000
