10
Lattice="16.28999089631971 0.0 0.0 0.0 16.28999089631971 0.0 0.0 0.0 34.395419527814205" Properties=species:S:1:pos:R:3:initial_magmoms:R:1 pbc="T T T"
Si       1.99429740       1.22644152       0.31984318       0.00000000
Si       0.03059262      -1.24903575       2.03387108       0.00000000
Si      -1.71372429       1.68871914       0.06480101       0.00000000
Si       0.33257664      -0.47464173      -2.34762628       0.00000000
Si       0.56070180       1.79496252      -3.03078848       0.00000000
Si      -1.56116844       2.38474197      -2.21145473       0.00000000
Si       1.20105748       2.88758169       1.83747313       0.00000000
Si       2.58426908       2.01119598      -1.86636530       0.00000000
Si      -1.16354583       3.18049218       1.93027202       0.00000000
Si      -2.15510184      -1.48450770       2.93217676       0.00000000
