10
Lattice="16.28999089631971 0.0 0.0 0.0 16.28999089631971 0.0 0.0 0.0 34.395419527814205" Properties=species:S:1:pos:R:3:initial_magmoms:R:1 pbc="T T T"
Si       1.35583299       1.35703845      -1.35634973       0.00000000
Si       1.35283563      -1.35913986       1.35889499       0.00000000
Si      -1.35879777      -1.35795069      -1.35655610       0.00000000
Si      -1.35925389       1.35557235       1.36047718       0.00000000
Si       0.00869886       2.70664866       2.70537323       0.00000000
Si       2.71241532       2.71386513       0.00020637       0.00000000
Si       2.71352304      -0.00058644      -2.71369693       0.00000000
Si      -0.00117288       2.71458189      -2.71366254       0.00000000
Si       2.71420722      -2.71412577       0.00110065       0.00000000
Si      -0.00138465      -2.71547784      -2.71386891       0.00000000
