10
Lattice="16.28999089631971 0.0 0.0 0.0 16.28999089631971 0.0 0.0 0.0 34.395419527814205" Properties=species:S:1:pos:R:3:initial_magmoms:R:1 pbc="T T T"
Si       1.35447898       1.36282140      -1.37512964       0.00000000
Si      -1.36321236      -1.35537687      -1.37973863       0.00000000
Si      -1.34094393       1.43376435       1.38613618       0.00000000
Si       1.35505107      -1.40089113       1.42328326       0.00000000
Si      -2.69941590      -2.70032814       0.00622557       0.00000000
Si      -2.70734913       2.71041165      -0.03326039       0.00000000
Si       2.68882970       2.74556547      -0.00887402       0.00000000
Si       2.71706353      -2.72143998      -0.00051593       0.00000000
Si      -0.00184077      -2.71036278      -2.73753297       0.00000000
Si       2.71284279       0.00348606      -2.73681067       0.00000000
