10
Lattice="16.28999089631971 0.0 0.0 0.0 16.28999089631971 0.0 0.0 0.0 34.395419527814205" Properties=species:S:1:pos:R:3:initial_magmoms:R:1 pbc="T T T"
Si      -0.76181814      -2.12732739      -0.69423754       0.00000000
Si       0.10008576      -0.31980528       2.37734394       0.00000000
Si       2.19676256       0.62390700      -0.78528226       0.00000000
Si      -1.39031892       1.91371662      -0.63717550       0.00000000
Si       0.07939746       3.40768881       0.49233631       0.00000000
Si       2.32445987       2.59328655       0.48844963       0.00000000
Si      -1.72672371      -2.79137295       1.41664494       0.00000000
Si      -2.02178448       0.26997417       3.19667768       0.00000000
Si      -1.40791212       1.85963382      -3.00186192       0.00000000
Si      -2.64909609      -1.91135457      -2.06255688       0.00000000
