10
Lattice="16.28999089631971 0.0 0.0 0.0 16.28999089631971 0.0 0.0 0.0 34.395419527814205" Properties=species:S:1:pos:R:3:initial_magmoms:R:1 pbc="T T T"
Si       0.58696128      -2.22425289       0.04825680       0.00000000
Si      -1.11666321       0.54305973       1.96882931       0.00000000
Si      -1.98571842       0.23460858      -1.20284289       0.00000000
Si       1.95231970       1.33182153       0.18865898       0.00000000
Si      -2.02083966       2.55391429      -0.81386487       0.00000000
Si       1.35580041      -2.52327213      -2.17709369       0.00000000
Si       3.38335874      -0.15969087       1.35394205       0.00000000
Si      -1.35224919      -3.44092041       0.60814575       0.00000000
Si      -2.49624702       2.40503835       1.46201252       0.00000000
Si       0.49687758       1.27304721       3.51263418       0.00000000
