10
Lattice="16.28999089631971 0.0 0.0 0.0 16.28999089631971 0.0 0.0 0.0 34.395419527814205" Properties=species:S:1:pos:R:3:initial_magmoms:R:1 pbc="T T T"
Si      -1.04585058      -1.63152495       1.33901241       0.00000000
Si       1.69484418       1.07132814       1.33960745       0.00000000
Si       1.15887060      -1.77357375      -1.30207373       0.00000000
Si      -1.69438806       2.13706881      -0.28372797       0.00000000
Si       0.52877340      -0.22252140      -3.04502819       0.00000000
Si      -1.82130345       0.14299362      -2.85922403       0.00000000
Si      -2.30150007      -0.16203663       2.71333719       0.00000000
Si       0.43383528       2.54176213       2.72952713       0.00000000
Si      -2.90191689      -2.45895921       0.01480592       0.00000000
Si      -3.55335399       1.21878522       1.17360130       0.00000000
