10
Lattice="16.28999089631971 0.0 0.0 0.0 16.28999089631971 0.0 0.0 0.0 34.395419527814205" Properties=species:S:1:pos:R:3:initial_magmoms:R:1 pbc="T T T"
Si      -1.35534206      -1.35581670       1.35775994       0.00000000
Si      -1.35325694       1.36054080      -1.35851664       0.00000000
Si       1.35948322       1.35927018       1.35755357       0.00000000
Si       1.36064633      -1.35614250      -1.36113070       0.00000000
Si      -0.00479514       2.70433548      -2.71399617       0.00000000
Si      -2.71234793      -2.71352304       0.00065351       0.00000000
Si      -2.71303211       0.00180819       2.71510714       0.00000000
Si       0.00237216      -2.71357191       2.71507275       0.00000000
Si      -2.71322759       2.71656927       0.00065351       0.00000000
Si       2.71753980      -2.71406061       0.00003440       0.00000000
