10
Lattice="16.28999089631971 0.0 0.0 0.0 16.28999089631971 0.0 0.0 0.0 34.395419527814205" Properties=species:S:1:pos:R:3:initial_magmoms:R:1 pbc="T T T"
Si      -1.75095671       1.00299159      -1.26389479       0.00000000
Si      -1.13313240      -0.67531824       2.01192679       0.00000000
Si       1.23878934      -1.78829991      -1.12992456       0.00000000
Si       1.22342787       2.15578602       0.31489024       0.00000000
Si       2.28794679      -0.34876890      -2.62107001       0.00000000
Si      -0.83913048       1.32690195       3.17387351       0.00000000
Si      -0.47374578       2.43191781      -2.68735002       0.00000000
Si      -3.46889753      -0.94465710       1.44051537       0.00000000
Si       0.89697627       2.82411585       2.49869104       0.00000000
Si      -0.48821130      -3.07188675      -2.45837959       0.00000000
