10
Lattice="16.28999089631971 0.0 0.0 0.0 16.28999089631971 0.0 0.0 0.0 34.395419527814205" Properties=species:S:1:pos:R:3:initial_magmoms:R:1 pbc="T T T"
Si       1.18107387       1.62427590       1.12744809       0.00000000
Si      -2.31030156       0.42572286       0.15801265       0.00000000
Si       0.53853111      -1.87201422       1.34214442       0.00000000
Si       0.83678472       0.24193908      -2.22882443       0.00000000
Si      -1.23245253      -0.17759358      -3.16802628       0.00000000
Si       3.24410463       0.50222070       1.07588932       0.00000000
Si       0.20896812      -0.46560078       3.48900452       0.00000000
Si      -2.61816627       1.29854106      -2.00054190       0.00000000
Si       2.86104528      -1.81232766       1.46098066       0.00000000
Si      -3.19733115      -1.41465618       1.33333918       0.00000000
