10
Lattice="16.28999089631971 0.0 0.0 0.0 16.28999089631971 0.0 0.0 0.0 34.395419527814205" Properties=species:S:1:pos:R:3:initial_magmoms:R:1 pbc="T T T"
Si      -1.30383531       1.33610580       1.47169140       0.00000000
Si       1.40844969      -1.39043295       1.43421069       0.00000000
Si      -1.97483670      -0.79557102      -1.22238909       0.00000000
Si       0.99759960       1.67527893      -1.50766012       0.00000000
Si       1.48167324       0.16275339      -3.44360739       0.00000000
Si      -2.66373917      -2.65460211       0.04191428       0.00000000
Si      -2.54484661       2.76880871       0.06119636       0.00000000
Si       2.77259058       2.61191972      -0.08011730       0.00000000
Si      -2.67029101      -0.01653435       2.83147723       0.00000000
Si       0.04483008       2.69296410       2.83336898       0.00000000
