10
Lattice="16.28999089631971 0.0 0.0 0.0 16.28999089631971 0.0 0.0 0.0 34.395419527814205" Properties=species:S:1:pos:R:3:initial_magmoms:R:1 pbc="T T T"
Si      -1.29081960      -1.32165657      -1.37650546       0.00000000
Si       0.40635405      -1.59778836       1.62573481       0.00000000
Si       1.50607566       1.37112930      -1.18829362       0.00000000
Si       2.70112635      -1.33822350       1.26998278       0.00000000
Si      -2.56803053      -2.75058279       0.04694977       0.00000000
Si       0.06550209       2.65802301      -2.66554332       0.00000000
Si      -2.67799944      -0.02666673      -2.68253466       0.00000000
Si       0.06159249      -2.76016131      -2.68817552       0.00000000
Si       2.78972766      -0.05657517      -2.65780434       0.00000000
Si       0.07990245      -0.92945853       3.80953561       0.00000000
