10
Lattice="16.28999089631971 0.0 0.0 0.0 16.28999089631971 0.0 0.0 0.0 34.395419527814205" Properties=species:S:1:pos:R:3:initial_magmoms:R:1 pbc="T T T"
Si      -2.05029198       1.04363514       0.14002383       0.00000000
Si       0.29711331      -1.81776852       1.42194183       0.00000000
Si       1.39238775       1.85856098      -0.63291047       0.00000000
Si      -0.33847362      -1.06350894      -2.13537202       0.00000000
Si       1.63918125       0.43847793      -2.58347580       0.00000000
Si      -2.84084731      -1.18138338      -2.06909201       0.00000000
Si      -2.12248926       2.42754787      -1.83252019       0.00000000
Si      -3.72643426      -0.53761887       0.11900822       0.00000000
Si      -0.25339095       3.63904658      -1.00586021       0.00000000
Si       1.87032006      -3.28380336       0.39812720       0.00000000
