10
Lattice="10.86 0.0 0.0 0.0 10.86 0.0 0.0 0.0 10.86" Properties=species:S:1:pos:R:3:initial_magmoms:R:1 pbc="T T T"
Si      -1.20097482       1.59649602      -1.10905578       0.00000000
Si      -1.20097482      -1.11850398       1.60594422       0.00000000
Si       1.49953794      -0.80407440      -1.57150716       0.00000000
Si       1.51402518       1.59649602       1.60594422       0.00000000
Si      -2.55847482       0.23899602      -2.46655578       0.00000000
Si      -2.55847482      -2.47600398       0.24844422       0.00000000
Si       0.27131538      -2.36581842      -2.65914702       0.00000000
Si       2.83209252      -2.40322026       0.12869100       0.00000000
Si       0.15652518      -2.47600398       2.96344422       0.00000000
Si      -2.55847482       2.95399602       0.24844422       0.00000000
