10
Lattice="16.28999089631971 0.0 0.0 0.0 16.28999089631971 0.0 0.0 0.0 34.40246978574605" Properties=species:S:1:pos:R:3:initial_magmoms:R:1 pbc="T T T"
Si       1.35182239       1.35652369      -1.39505533       0.00000000
Si      -1.36217726      -1.36046665      -1.38975735       0.00000000
Si      -1.28526487       1.56787015       1.30746659       0.00000000
Si       1.40926093      -1.34999874       1.56101294       0.00000000
Si       2.68721143       2.71445809      -0.01799250       0.00000000
Si       2.69408581      -2.71272550      -0.01654760       0.00000000
Si      -2.72733111      -2.72508961       0.00130729       0.00000000
Si       2.70483721      -0.00135696      -2.75295598       0.00000000
Si      -0.00853596       2.71520743      -2.75305918       0.00000000
Si      -0.00759277      -2.71590205      -2.75357522       0.00000000
