10
Lattice="16.28999089631971 0.0 0.0 0.0 16.28999089631971 0.0 0.0 0.0 34.40246978574605" Properties=species:S:1:pos:R:3:initial_magmoms:R:1 pbc="T T T"
Si      -1.59125607       0.11381823      -1.72342709       0.00000000
Si      -0.39506508      -2.20531739       0.78740417       0.00000000
Si      -0.70695342       1.73356551       1.51439757       0.00000000
Si       1.94369022       0.76650966      -1.27767404       0.00000000
Si       1.43140230       2.81406492       1.41807060       0.00000000
Si      -1.93513797       2.49004053      -1.71513609       0.00000000
Si       1.79388738       3.10951665      -0.94630927       0.00000000
Si      -0.37077669      -0.66209076      -3.67077998       0.00000000
Si       1.03832460      -2.78815472       2.50814786       0.00000000
Si       2.89659006       1.10887659       2.36589357       0.00000000
