10
Lattice="16.28999089631971 0.0 0.0 0.0 16.28999089631971 0.0 0.0 0.0 34.40246978574605" Properties=species:S:1:pos:R:3:initial_magmoms:R:1 pbc="T T T"
Si      -0.17368398       1.01234205      -2.10722126       0.00000000
Si       0.39646602      -2.31721245      -0.25172301       0.00000000
Si       1.74198744       1.59275312       0.24738830       0.00000000
Si      -1.82068443      -0.32232860       1.48911174       0.00000000
Si       1.49436315      -2.59912719       1.84190926       0.00000000
Si       1.24507728      -0.33195925      -3.40632805       0.00000000
Si       1.45521828      -2.46049929      -2.35075648       0.00000000
Si       0.62022546       3.46613570       1.32783287       0.00000000
Si      -1.76860530      -3.34110411      -0.10172816       0.00000000
Si      -2.97408159       1.68995555       1.78875742       0.00000000
