10
Lattice="16.28999089631971 0.0 0.0 0.0 16.28999089631971 0.0 0.0 0.0 34.40246978574605" Properties=species:S:1:pos:R:3:initial_magmoms:R:1 pbc="T T T"
Si      -1.35832536       1.35083196      -1.35817586       0.00000000
Si       1.35565380       1.35547461       1.35755662       0.00000000
Si      -1.35940050      -1.35936792       1.35728140       0.00000000
Si       1.35669636      -1.36054080      -1.36034322       0.00000000
Si      -2.69320941      -0.01119123      -2.70999071       0.00000000
Si       2.71031391       0.00902466      -2.69610930       0.00000000
Si      -0.00198738       2.71256193       2.71425318       0.00000000
Si       2.71456560       2.71228500       0.00006880       0.00000000
Si       2.71257822      -0.00151497       2.71535406       0.00000000
Si       2.71329498      -2.71599912       0.00037843       0.00000000
