10
Lattice="16.28999089631971 0.0 0.0 0.0 16.28999089631971 0.0 0.0 0.0 34.40246978574605" Properties=species:S:1:pos:R:3:initial_magmoms:R:1 pbc="T T T"
Si       1.13078664      -1.30202712       1.58392500       0.00000000
Si       1.36360332       1.35006633      -1.34431166       0.00000000
Si      -1.35070164      -1.36168110      -1.34671983       0.00000000
Si      -1.38272778       1.34618931       1.33956412       0.00000000
Si       1.74514770       0.82758087       2.72942467       0.00000000
Si      -2.35256922      -0.37879137       2.67506874       0.00000000
Si       0.15354954       2.78612757       2.45864268       0.00000000
Si       2.69330715      -2.68216479       0.02129514       0.00000000
Si      -2.70870120      -0.00534312      -2.70479249       0.00000000
Si       0.00558747       2.71031391      -2.70527413       0.00000000
