10
Lattice="16.28999089631971 0.0 0.0 0.0 16.28999089631971 0.0 0.0 0.0 34.40246978574605" Properties=species:S:1:pos:R:3:initial_magmoms:R:1 pbc="T T T"
Si      -1.13078664       1.30202712      -1.58392500       0.00000000
Si      -1.71118305      -0.89459793       1.54013063       0.00000000
Si       0.61436106       2.12960799       1.14549968       0.00000000
Si       1.56252051      -1.38013767      -1.56262986       0.00000000
Si      -2.51351442       2.64821643      -0.24436088       0.00000000
Si      -2.58097131      -2.66841603       0.01819892       0.00000000
Si       1.63523907      -3.00363165       1.49568261       0.00000000
Si       2.70537804       2.61205263      -0.05666090       0.00000000
Si      -3.48335586       0.92323575       1.09114374       0.00000000
Si      -2.48148828      -0.05965398      -2.93064483       0.00000000
