10
Lattice="16.28999089631971 0.0 0.0 0.0 16.28999089631971 0.0 0.0 0.0 34.40246978574605" Properties=species:S:1:pos:R:3:initial_magmoms:R:1 pbc="T T T"
Si       1.34167698      -1.37808513       1.32305092       0.00000000
Si       1.37779191       1.33734384      -1.36158171       0.00000000
Si      -1.34583093      -1.37085237      -1.36350825       0.00000000
Si      -1.26811134       1.47243681       1.40403438       0.00000000
Si       2.87795430       0.06185313       2.44212949       0.00000000
Si      -2.68228371       0.12100212       2.67211013       0.00000000
Si      -2.69981826      -2.71147050       0.00749974       0.00000000
Si       0.01598049       2.70060507      -2.71875990       0.00000000
Si      -2.70040307      -0.01389537      -2.72323223       0.00000000
Si      -2.71534426       2.71047681       0.01524030       0.00000000
