10
Lattice="16.28999089631971 0.0 0.0 0.0 16.28999089631971 0.0 0.0 0.0 34.40246978574605" Properties=species:S:1:pos:R:3:initial_magmoms:R:1 pbc="T T T"
Si       0.95659767      -1.47152457      -1.59500260       0.00000000
Si      -1.84254561       1.10833902      -1.00874978       0.00000000
Si       1.35355239       1.98573471       0.42586841       0.00000000
Si       0.20857716      -1.79804133       1.68032077       0.00000000
Si       2.41135983      -0.00615762      -2.69268281       0.00000000
Si      -0.67321683       2.38643613      -2.69065307       0.00000000
Si       1.15702983       2.02989690       2.89318052       0.00000000
Si      -1.96706637      -2.88800523       1.48666916       0.00000000
Si      -2.33372169       3.05437500       0.33680037       0.00000000
Si       0.29038554       3.72154824      -1.01876091       0.00000000
