10
Lattice="16.28999089631971 0.0 0.0 0.0 16.28999089631971 0.0 0.0 0.0 34.40246978574605" Properties=species:S:1:pos:R:3:initial_magmoms:R:1 pbc="T T T"
Si       1.45476216       1.46536695      -1.09768022       0.00000000
Si      -0.95659767       1.47152457       1.59500260       0.00000000
Si      -1.53627732      -1.43993826      -1.11907857       0.00000000
Si       1.59159816      -1.95854670       0.27078199       0.00000000
Si      -0.74802051      -0.32651676       3.27532337       0.00000000
Si       1.38989538      -1.48007682       2.73369058       0.00000000
Si       2.58564654      -0.06595821      -2.45004206       0.00000000
Si      -0.13334994       2.63911032      -2.44477848       0.00000000
Si      -0.15354954      -2.78612757      -2.45864268       0.00000000
Si      -2.87795430      -0.06185313      -2.44212949       0.00000000
