10
Lattice="16.28999089631971 0.0 0.0 0.0 16.28999089631971 0.0 0.0 0.0 34.40246978574605" Properties=species:S:1:pos:R:3:initial_magmoms:R:1 pbc="T T T"
Si      -0.52629732       2.28504717      -0.02446017       0.00000000
Si      -1.98612567      -1.01292849       0.76032941       0.00000000
Si       1.72467117      -0.50464791       1.56655174       0.00000000
Si       0.23583033      -0.34244838      -2.48485738       0.00000000
Si       2.95394715       1.55131299       1.34637581       0.00000000
Si      -1.93981320      -1.43241228      -2.67850899       0.00000000
Si      -1.38518757      -3.32063505       0.70332449       0.00000000
Si      -3.49661592      -0.71996913      -1.09307028       0.00000000
Si      -2.69131977       0.12668733       2.69890967       0.00000000
Si      -2.86951608       2.58260031      -0.37123726       0.00000000
