10
Lattice="16.28999089631971 0.0 0.0 0.0 16.28999089631971 0.0 0.0 0.0 34.40246978574605" Properties=species:S:1:pos:R:3:initial_magmoms:R:1 pbc="T T T"
Si      -2.17564353      -1.08996390      -0.19365161       0.00000000
Si      -0.20857716       1.79804133      -1.68032077       0.00000000
Si       2.13791589      -1.15356006      -0.54163279       0.00000000
Si      -0.23583033       0.34244838       2.48485738       0.00000000
Si       0.74802051       0.32651676      -3.27532337       0.00000000
Si      -0.76212765       2.62749555       2.46039721       0.00000000
Si      -1.76700888      -3.17715273       0.78602807       0.00000000
Si       2.09399805      -3.30268347       0.46952517       0.00000000
Si      -2.22195600      -0.67048011       3.24518679       0.00000000
Si      -3.73244625      -0.37752075       1.39178710       0.00000000
