10
Lattice="16.28999089631971 0.0 0.0 0.0 16.28999089631971 0.0 0.0 0.0 34.40246978574605" Properties=species:S:1:pos:R:3:initial_magmoms:R:1 pbc="T T T"
Si       1.90249281      -1.29992571      -0.68574481       0.00000000
Si      -1.47056346      -1.77096735      -0.92583978       0.00000000
Si       0.07058457       2.36990178      -0.79111964       0.00000000
Si      -0.61221078       0.04673601       2.68449502       0.00000000
Si      -2.22233067       1.40123322       1.54766477       0.00000000
Si      -1.04739813      -3.22165701       0.92848878       0.00000000
Si       1.51229844      -3.18124152       0.81506377       0.00000000
Si       1.28510181      -1.78735509      -2.98090687       0.00000000
Si      -1.08015732      -1.77450228      -3.28062135       0.00000000
Si      -3.90924162       0.63185652      -0.07977937       0.00000000
