10
Lattice="16.28999089631971 0.0 0.0 0.0 16.28999089631971 0.0 0.0 0.0 34.40246978574605" Properties=species:S:1:pos:R:3:initial_magmoms:R:1 pbc="T T T"
Si       1.35689184      -1.35709058      -1.36330183       0.00000000
Si      -1.35874890       1.35826020      -1.36264819       0.00000000
Si       1.32871014       1.39626477       1.36202894       0.00000000
Si      -1.35992178      -1.34814574       1.40262388       0.00000000
Si       2.80533348       0.12456963       2.60836231       0.00000000
Si      -2.71451673      -2.71214558      -0.00271780       0.00000000
Si       2.71425609      -2.71341994      -0.00732773       0.00000000
Si       2.71295289       2.71888245      -0.00574522       0.00000000
Si      -2.71529865       2.71674846      -0.00598603       0.00000000
Si      -0.00125433      -2.71436796      -2.72113367       0.00000000
