10
Lattice="16.28999089631971 0.0 0.0 0.0 16.28999089631971 0.0 0.0 0.0 34.40246978574605" Properties=species:S:1:pos:R:3:initial_magmoms:R:1 pbc="T T T"
Si       1.47813831      -0.20478159       1.88893746       0.00000000
Si       0.25415658      -2.25224563      -0.82194427       0.00000000
Si      -2.20477005       0.51507351       0.89776735       0.00000000
Si       0.80475858       1.61557704      -1.66841751       0.00000000
Si      -2.35006056       2.38728321      -0.78272543       0.00000000
Si      -0.30822309       3.51806985      -0.38523907       0.00000000
Si       0.95827554       0.05548374      -3.50912268       0.00000000
Si      -1.40268303      -3.33675305       0.91710155       0.00000000
Si       2.84804586       1.69670124       1.73429828       0.00000000
Si      -1.95266601       0.72040896       3.26778922       0.00000000
