10
Lattice="16.28999089631971 0.0 0.0 0.0 16.28999089631971 0.0 0.0 0.0 34.40246978574605" Properties=species:S:1:pos:R:3:initial_magmoms:R:1 pbc="T T T"
Si      -1.33843527      -1.36029645      -1.38672993       0.00000000
Si       1.37165058       1.35501849      -1.38184478       0.00000000
Si       1.45233495      -1.29428937       1.42863216       0.00000000
Si      -1.57982049       1.30927617       1.48701319       0.00000000
Si       0.14838561       1.53052695       3.03928789       0.00000000
Si      -2.67678909       2.71942002      -0.03165029       0.00000000
Si      -2.72267802      -2.68291413      -0.01895577       0.00000000
Si       2.72056032      -2.69368182      -0.03959726       0.00000000
Si      -2.69213427      -0.00490329      -2.74459617       0.00000000
Si       2.73812094       2.70589932      -0.01451785       0.00000000
