10
Lattice="16.28999089631971 0.0 0.0 0.0 16.28999089631971 0.0 0.0 0.0 34.40246978574605" Properties=species:S:1:pos:R:3:initial_magmoms:R:1 pbc="T T T"
Si      -1.29992571      -0.48972627      -1.92530090       0.00000000
Si       2.24129223       0.89290377      -0.23895969       0.00000000
Si      -1.06538229       1.75223385       1.36502196       0.00000000
Si      -0.11826540      -2.17937394       1.18839958       0.00000000
Si       3.03057531      -1.26894213       0.01049276       0.00000000
Si      -2.50999578      -1.92756312       1.49795318       0.00000000
Si       1.81423359      -2.53575027      -1.60549536       0.00000000
Si      -0.67518792       3.63354966      -0.13578662       0.00000000
Si      -0.29234034      -2.42458731      -2.79055790       0.00000000
Si       0.11277567       1.53764568       3.45198015       0.00000000
