10
Lattice="16.28999089631971 0.0 0.0 0.0 16.28999089631971 0.0 0.0 0.0 34.40246978574605" Properties=species:S:1:pos:R:3:initial_magmoms:R:1 pbc="T T T"
Si       1.46429181      -1.18511379      -1.31063162       0.00000000
Si      -1.33582887      -1.36484136       1.34219247       0.00000000
Si       1.37754756       1.35264015       1.34504787       0.00000000
Si      -1.28044287       1.37041254      -1.44128540       0.00000000
Si       2.39467887       0.43733763      -2.78533013       0.00000000
Si      -2.66212809       2.70843721      -0.01579418       0.00000000
Si       0.48066903       2.37162852      -2.93078386       0.00000000
Si      -2.69252523      -0.00876402       2.70212286       0.00000000
Si       0.21802536      -2.52451017      -2.86180687       0.00000000
Si       0.02293632       2.70682756       2.70284531       0.00000000
