10
Lattice="16.28999089631971 0.0 0.0 0.0 16.28999089631971 0.0 0.0 0.0 34.40246978574605" Properties=species:S:1:pos:R:3:initial_magmoms:R:1 pbc="T T T"
Si      -0.77183649       0.16768926      -2.22498098       0.00000000
Si       0.20799072       2.35410048      -0.03777393       0.00000000
Si       2.21069961      -0.69401916      -0.62774222       0.00000000
Si      -1.59044157      -1.32304122       1.56438438       0.00000000
Si       0.17922258       2.33004015      -2.51444352       0.00000000
Si      -0.09984141      -1.93763034      -2.94120640       0.00000000
Si      -3.02666571       0.48358494       1.87173622       0.00000000
Si       1.91166408      -2.61900846      -1.96066665       0.00000000
Si       2.31640542       2.90035535       0.86928209       0.00000000
Si       1.03650012       0.27370458       3.65980559       0.00000000
