10
Lattice="16.28999089631971 0.0 0.0 0.0 16.28999089631971 0.0 0.0 0.0 34.40246978574605" Properties=species:S:1:pos:R:3:initial_magmoms:R:1 pbc="T T T"
Si       0.97743258       1.68437364       1.42714395       0.00000000
Si      -1.76111190      -1.00121598       1.48949846       0.00000000
Si      -0.06243957       1.56746845      -1.98708777       0.00000000
Si       1.91400984      -1.93429089       0.14545372       0.00000000
Si      -2.14915599      -1.72441053      -1.64261564       0.00000000
Si       2.24964900       0.33886458       2.91871890       0.00000000
Si       1.08550044       0.14610501      -3.55212580       0.00000000
Si      -0.48066903      -2.37162852       2.93078386       0.00000000
Si       2.90245446       2.55800960       0.25996314       0.00000000
Si       2.16744966       2.67660080      -2.00232807       0.00000000
