10
Lattice="16.28999089631971 0.0 0.0 0.0 16.28999089631971 0.0 0.0 0.0 34.40246978574605" Properties=species:S:1:pos:R:3:initial_magmoms:R:1 pbc="T T T"
Si      -1.19661453       0.16215066      -1.98987437       0.00000000
Si       1.92219135       1.14515442      -0.67036690       0.00000000
Si      -0.56290095       1.45096659       1.77134976       0.00000000
Si      -0.06840171      -2.39220768       0.32840616       0.00000000
Si      -2.78760996       0.66406185       2.04361105       0.00000000
Si      -3.09620772      -1.13314869      -1.52643844       0.00000000
Si       3.32323235       0.98111412       1.20360548       0.00000000
Si       1.16303011       3.37765005      -0.98164062       0.00000000
Si       1.78132357      -2.86446781       1.73591519       0.00000000
Si      -0.41775705       3.71363130       0.78568404       0.00000000
