10
Lattice="16.28999089631971 0.0 0.0 0.0 16.28999089631971 0.0 0.0 0.0 34.40246978574605" Properties=species:S:1:pos:R:3:initial_magmoms:R:1 pbc="T T T"
Si       1.89959319       1.29529935      -0.46343593       0.00000000
Si      -0.69649524      -1.96145284       1.17635871       0.00000000
Si      -0.85875993       1.40967144      -1.78996150       0.00000000
Si      -1.19101077       1.36702422       1.63401502       0.00000000
Si      -2.56091832      -0.53445861       1.78865421       0.00000000
Si       0.55410435       3.35891655      -0.90705603       0.00000000
Si       3.09620772       1.13314869       1.52643844       0.00000000
Si       3.02780601      -1.25905899       1.85484460       0.00000000
Si       1.10785032      -2.53015140       2.59707830       0.00000000
Si      -3.23429805       1.28590002      -1.76870077       0.00000000
