10
Lattice="16.28999089631971 0.0 0.0 0.0 16.28999089631971 0.0 0.0 0.0 34.40246978574605" Properties=species:S:1:pos:R:3:initial_magmoms:R:1 pbc="T T T"
Si      -1.00551654      -1.79514171       1.18984448       0.00000000
Si       1.26822537      -1.39939245      -1.46822943       0.00000000
Si      -1.45233495       1.29428937      -1.42863216       0.00000000
Si       1.85277573       0.92343123       1.48570589       0.00000000
Si      -1.30394934       2.82481632       1.61065573       0.00000000
Si       0.88715340      -3.39726321       1.13579817       0.00000000
Si       2.72096156      -2.57349420      -0.11256494       0.00000000
Si       2.65958654       2.66970294      -0.01193766       0.00000000
Si      -2.69838963      -2.66031990      -0.20125456       0.00000000
Si       2.63813292      -0.06915105      -2.81618775       0.00000000
