10
Lattice="16.28999089631971 0.0 0.0 0.0 16.28999089631971 0.0 0.0 0.0 34.40246978574605" Properties=species:S:1:pos:R:3:initial_magmoms:R:1 pbc="T T T"
Si       1.30493051      -1.37777562       1.29566998       0.00000000
Si      -1.30434030      -1.35158130      -1.35378095       0.00000000
Si       1.37680671       1.15549857      -1.49392606       0.00000000
Si      -1.42853526       1.35834165       1.28077026       0.00000000
Si      -2.07871803       0.51764733      -2.55971517       0.00000000
Si      -0.47982195       2.35535481      -2.41983465       0.00000000
Si       0.50614659      -2.33548101      -2.60650256       0.00000000
Si       2.27668130      -0.70824033      -2.82413270       0.00000000
Si       2.63118916      -0.00635310       2.63972018       0.00000000
Si       2.67989789       2.64964995      -0.14771053       0.00000000
