10
Lattice="16.28999089631971 0.0 0.0 0.0 16.28999089631971 0.0 0.0 0.0 34.40246978574605" Properties=species:S:1:pos:R:3:initial_magmoms:R:1 pbc="T T T"
Si      -1.35620766      -1.35477414      -1.35728140       0.00000000
Si       1.35749461      -1.35711990       1.35700618       0.00000000
Si      -1.35814617       1.35723393       1.35721259       0.00000000
Si       1.35816246       1.35948195      -1.35717819       0.00000000
Si       2.71016308       0.00076563      -2.71466601       0.00000000
Si       2.71347158       0.00042354       2.71239544       0.00000000
Si      -0.00316026       2.71528236      -2.71260186       0.00000000
Si       2.71402870      -2.71476108       0.00000000       0.00000000
Si       2.71420789       2.71459818       0.00010321       0.00000000
Si      -2.71502172       0.00254124       2.71538846       0.00000000
