10
Lattice="16.28999089631971 0.0 0.0 0.0 16.28999089631971 0.0 0.0 0.0 34.40246978574605" Properties=species:S:1:pos:R:3:initial_magmoms:R:1 pbc="T T T"
Si       1.35620766       1.35477414       1.35728140       0.00000000
Si      -1.36138788       1.35337320      -1.35728140       0.00000000
Si      -1.35948195      -1.36029645       1.35700618       0.00000000
Si       1.35759231      -1.36083402      -1.36027442       0.00000000
Si      -0.00193851       2.71200807       2.71449399       0.00000000
Si       2.71370227      -0.00234576       2.71428758       0.00000000
Si       2.71437012       2.71425609       0.00010321       0.00000000
Si      -2.71656927       2.71248048       0.00055044       0.00000000
Si      -2.71691136      -0.00259011       2.71521645       0.00000000
Si       2.71444677      -2.71780731       0.00037843       0.00000000
