10
Lattice="16.28999089631971 0.0 0.0 0.0 16.28999089631971 0.0 0.0 0.0 34.40246978574605" Properties=species:S:1:pos:R:3:initial_magmoms:R:1 pbc="T T T"
Si      -1.13091696       1.09230966       1.71568653       0.00000000
Si       2.19701601       0.66259575      -0.48682962       0.00000000
Si       0.50624433      -2.25754965       0.51239067       0.00000000
Si      -1.32426297       0.73770894      -1.90675795       0.00000000
Si      -0.91355949      -2.57144166      -1.44597102       0.00000000
Si       2.14366626       2.98797696      -0.80635994       0.00000000
Si      -3.10115988       1.99516662      -0.88276787       0.00000000
Si      -3.43375281       1.08172116       1.23443011       0.00000000
Si      -0.61051662       3.37082454       1.70388648       0.00000000
Si       3.65008401      -0.13851387       1.24131061       0.00000000
