10
Lattice="16.28999089631971 0.0 0.0 0.0 16.28999089631971 0.0 0.0 0.0 34.40246978574605" Properties=species:S:1:pos:R:3:initial_magmoms:R:1 pbc="T T T"
Si      -1.68521679      -0.37185183       1.58808770       0.00000000
Si       1.39879039       1.82689092       0.46838989       0.00000000
Si       1.60076033      -1.73837106       0.05528480       0.00000000
Si      -1.21582044       0.33787089      -2.04698250       0.00000000
Si      -0.13328478       3.15672507       1.63078119       0.00000000
Si      -1.38618126       1.55313747       2.92101213       0.00000000
Si       0.84662618      -2.97220824      -1.83396229       0.00000000
Si      -0.67447116      -1.66171032      -3.17001735       0.00000000
Si       3.68003222      -0.54763722       0.39236039       0.00000000
Si      -3.69672228       0.30952629       0.60754796       0.00000000
