10
Lattice="16.28999089631971 0.0 0.0 0.0 16.28999089631971 0.0 0.0 0.0 34.40246978574605" Properties=species:S:1:pos:R:3:initial_magmoms:R:1 pbc="T T T"
Si       2.26006550      -0.40892787      -0.37932184       0.00000000
Si      -0.58119462      -1.85435586       1.31524156       0.00000000
Si      -1.19708694       0.44774694      -2.00666278       0.00000000
Si      -0.30359673       2.08803591       1.10160210       0.00000000
Si       3.23334413       0.07579737       1.75865524       0.00000000
Si       3.02926301       1.32791193      -1.77657894       0.00000000
Si      -3.43098351      -0.25808247      -1.53263089       0.00000000
Si      -2.92864878      -1.69508853       1.67612367       0.00000000
Si      -1.99267425       3.26233870      -0.07176359       0.00000000
Si      -0.03984534      -3.85393707       0.19220671       0.00000000
