10
Lattice="16.28999089631971 0.0 0.0 0.0 16.28999089631971 0.0 0.0 0.0 34.40246978574605" Properties=species:S:1:pos:R:3:initial_magmoms:R:1 pbc="T T T"
Si       2.13835572       1.08049941      -0.09632697       0.00000000
Si      -1.64774979       1.43037603      -1.00389903       0.00000000
Si       0.70695342      -1.73356551      -1.51439757       0.00000000
Si      -1.13021649      -0.88467732       1.94102283       0.00000000
Si      -1.22818455       0.75647502      -3.22953366       0.00000000
Si      -0.88430265      -1.61974728      -3.23782466       0.00000000
Si       0.51118020      -0.88003467       3.61429109       0.00000000
Si       3.60354348      -0.62468892       0.85149601       0.00000000
Si       2.50084080       1.37595114      -2.46070683       0.00000000
Si       2.07884835       3.30115221       0.67143338       0.00000000
