10
Lattice="16.28999089631971 0.0 0.0 0.0 16.28999089631971 0.0 0.0 0.0 34.40246978574605" Properties=species:S:1:pos:R:3:initial_magmoms:R:1 pbc="T T T"
Si      -1.35804191      -1.35599589       1.35542366       0.00000000
Si       1.35778779      -1.35650088      -1.35669656       0.00000000
Si      -1.35730561       1.35817875      -1.35686857       0.00000000
Si       1.35834165       1.35850455       1.35989599       0.00000000
Si      -2.70571267      -0.00770517       2.71339311       0.00000000
Si      -2.71335104       0.00306252      -2.71414997       0.00000000
Si      -2.71401889      -2.71353933       0.00003440       0.00000000
Si       0.00052128      -2.71288773      -2.71501003       0.00000000
Si      -0.00346977      -2.71295289       2.71514764       0.00000000
Si       2.71381626       0.00169416      -2.71452840       0.00000000
