10
Lattice="16.28999089631971 0.0 0.0 0.0 16.28999089631971 0.0 0.0 0.0 34.40246978574605" Properties=species:S:1:pos:R:3:initial_magmoms:R:1 pbc="T T T"
Si       1.44723292      -1.23804000       1.38879408       0.00000000
Si      -1.33272957      -1.37608146      -1.38050308       0.00000000
Si       1.36661371       1.35871632      -1.37689082       0.00000000
Si      -1.87435413       0.84132963       1.42216449       0.00000000
Si       0.03306056      -2.58947469       2.65686982       0.00000000
Si      -2.70302643       2.69524566       0.01840533       0.00000000
Si      -2.69613576      -2.72810259      -0.00602044       0.00000000
Si       2.71534426      -2.71047681      -0.01524030       0.00000000
Si       2.71839049       2.70760977       0.00055044       0.00000000
Si      -2.69730864      -0.00858483      -2.73365618       0.00000000
