10
Lattice="16.28999089631971 0.0 0.0 0.0 16.28999089631971 0.0 0.0 0.0 34.40246978574605" Properties=species:S:1:pos:R:3:initial_magmoms:R:1 pbc="T T T"
Si      -1.35755450       1.35547259       1.36323303       0.00000000
Si       1.35936792      -1.36055709       1.36233856       0.00000000
Si      -1.34910105      -1.38233682      -1.36687625       0.00000000
Si       1.35826020       1.37515327      -1.37234625       0.00000000
Si      -2.71638098       2.71053938       0.00172012       0.00000000
Si       2.71635750       2.71206738       0.00581402       0.00000000
Si       0.00083405       2.71305782       2.71986078       0.00000000
Si      -2.71660904      -2.71689507       0.00739654       0.00000000
Si      -2.71480085      -0.00185706       2.71975757       0.00000000
Si       2.71798650      -2.71676475       0.00663968       0.00000000
