10
Lattice="16.28999089631971 0.0 0.0 0.0 16.28999089631971 0.0 0.0 0.0 34.40246978574605" Properties=species:S:1:pos:R:3:initial_magmoms:R:1 pbc="T T T"
Si      -1.34990180       1.34571690      -1.35958637       0.00000000
Si       1.35177678       1.34889345       1.37744126       0.00000000
Si       1.36471104      -1.36858806      -1.35710939       0.00000000
Si      -1.36661371      -1.35871632       1.37689082       0.00000000
Si       2.59687035      -0.14937930       2.70812953       0.00000000
Si       0.08061921      -2.59675632       2.76568490       0.00000000
Si      -2.70448629       2.70115230       0.00423151       0.00000000
Si       0.00649971       2.70425831      -2.71624852       0.00000000
Si      -2.70814154      -0.01080027      -2.71666135       0.00000000
Si       2.72321559       2.70594819       0.00168572       0.00000000
