10
Lattice="16.28999089631971 0.0 0.0 0.0 16.28999089631971 0.0 0.0 0.0 34.40246978574605" Properties=species:S:1:pos:R:3:initial_magmoms:R:1 pbc="T T T"
Si      -0.92309728      -1.86109992      -1.00527513       0.00000000
Si       2.13379452      -0.54747432      -0.75657954       0.00000000
Si       0.67015431       0.08746101       2.24978517       0.00000000
Si      -1.41888248       1.62819594      -0.99560803       0.00000000
Si       1.85319927      -2.75634945       0.30666379       0.00000000
Si      -0.01263615       2.38619734       2.41044480       0.00000000
Si      -2.66495345      -0.26942031      -2.10808132       0.00000000
Si      -1.86236144       2.85845747       1.00293576       0.00000000
Si      -3.03590933      -1.88138097      -0.01651319       0.00000000
Si       0.00961762       2.44238969      -2.67228214       0.00000000
