10
Lattice="16.28999089631971 0.0 0.0 0.0 16.28999089631971 0.0 0.0 0.0 34.40246978574605" Properties=species:S:1:pos:R:3:initial_magmoms:R:1 pbc="T T T"
Si      -2.13379452       0.54747432       0.75657954       0.00000000
Si       1.53023373       1.36691019       1.17880129       0.00000000
Si       0.28245231      -0.28150749      -2.39389720       0.00000000
Si      -0.28059525      -2.20887513       1.06324333       0.00000000
Si      -3.05689180      -1.31362560      -0.24869559       0.00000000
Si      -1.46364021       0.63493533       3.00636471       0.00000000
Si       0.89650386       0.54851688       3.33016094       0.00000000
Si       2.06262351      -2.50642827       1.41002041       0.00000000
Si      -1.61982873      -3.31809381      -0.58859218       0.00000000
Si      -1.66094469       0.92155788      -3.22588699       0.00000000
