10
Lattice="16.28999089631971 0.0 0.0 0.0 16.28999089631971 0.0 0.0 0.0 34.40246978574605" Properties=species:S:1:pos:R:3:initial_magmoms:R:1 pbc="T T T"
Si      -0.67015431      -0.08746101      -2.24978517       0.00000000
Si      -0.76919751      -1.73683980       1.39725709       0.00000000
Si       2.36014407      -0.08641845       0.32379623       0.00000000
Si      -0.68279046       2.29873633       0.16065962       0.00000000
Si       1.46364021      -0.63493533      -3.00636471       0.00000000
Si       2.39919120       1.44896033       2.13089017       0.00000000
Si      -1.50389117       2.18548336       2.35598565       0.00000000
Si       0.37789542       1.14181497       3.37299204       0.00000000
Si       2.99387394       0.73197486      -1.82756342       0.00000000
Si       1.18304496      -2.84381046      -1.94312138       0.00000000
