10
Lattice="16.28999089631971 0.0 0.0 0.0 16.28999089631971 0.0 0.0 0.0 34.71893929493243" Properties=species:S:1:pos:R:3:initial_magmoms:R:1 pbc="T T T"
Si      -1.54457707      -1.44751311      -0.95070925       0.00000000
Si      -0.73404369       1.87813926       1.23325213       0.00000000
Si       1.01048499       1.26596106      -1.72393518       0.00000000
Si       1.31730714      -1.36034532       1.42247046       0.00000000
Si       1.53168354       2.64841191       1.56735267       0.00000000
Si       2.64453489       2.38615920      -0.49717549       0.00000000
Si      -1.44763854      -0.85988394      -3.28076800       0.00000000
Si      -1.79689614       3.24630378      -0.46773381       0.00000000
Si       3.50378352      -1.32550101       0.41471796       0.00000000
Si      -0.63459161       2.77808031      -2.47862118       0.00000000
