10
Lattice="16.28999089631971 0.0 0.0 0.0 16.28999089631971 0.0 0.0 0.0 34.71893929493243" Properties=species:S:1:pos:R:3:initial_magmoms:R:1 pbc="T T T"
Si       0.02769300      -1.35249354      -1.95905196       0.00000000
Si       1.84754664       0.53530569       1.48104134       0.00000000
Si      -2.17975580      -0.89109558       0.68451899       0.00000000
Si      -0.13499523       2.27680443      -0.97438758       0.00000000
Si      -3.21599528       0.25536204      -1.16138389       0.00000000
Si       0.43508961       1.46852721       3.11675533       0.00000000
Si      -2.13806969      -0.92624940      -2.95055599       0.00000000
Si      -2.20158440       2.24248140      -2.12473083       0.00000000
Si       3.27942135       1.91019798       0.00069438       0.00000000
Si       1.86105105      -0.64918908      -3.40172885       0.00000000
