10
Lattice="16.28999089631971 0.0 0.0 0.0 16.28999089631971 0.0 0.0 0.0 34.71893929493243" Properties=species:S:1:pos:R:3:initial_magmoms:R:1 pbc="T T T"
Si      -1.50558696       1.19644544      -1.30156863       0.00000000
Si      -1.34693865      -1.32894832       1.35397342       0.00000000
Si       1.16304084      -1.44579649      -1.46593512       0.00000000
Si       1.36645407       1.38795557       1.34886974       0.00000000
Si       0.33907635       2.03579095      -2.58405953       0.00000000
Si       2.07839223       0.36125877      -2.69861235       0.00000000
Si       0.00711873      -2.68818592       2.70686709       0.00000000
Si      -2.70291825      -2.69318695      -0.01265159       0.00000000
Si      -2.70659979       0.02511346       2.70707540       0.00000000
Si       2.72438847      -2.69457160      -0.04968630       0.00000000
