10
Lattice="16.28999089631971 0.0 0.0 0.0 16.28999089631971 0.0 0.0 0.0 34.71893929493243" Properties=species:S:1:pos:R:3:initial_magmoms:R:1 pbc="T T T"
Si       1.35599589       1.35628259      -1.35792791       0.00000000
Si       1.35715248      -1.35737138       1.35678219       0.00000000
Si      -1.35734796      -1.35817176      -1.35705994       0.00000000
Si      -1.35780408       1.35753692       1.35737241       0.00000000
Si       0.00231318      -2.71223354      -2.71016192       0.00000000
Si       2.71329498       0.00055712       2.71325190       0.00000000
Si       0.00066789      -2.71353674       2.71391156       0.00000000
Si       0.00053757       2.71416812       2.71425875       0.00000000
Si      -2.71497285      -0.00020200       2.71422403       0.00000000
Si       2.71463076      -2.71467704       0.00013888       0.00000000
