10
Lattice="16.28999089631971 0.0 0.0 0.0 16.28999089631971 0.0 0.0 0.0 34.71893929493243" Properties=species:S:1:pos:R:3:initial_magmoms:R:1 pbc="T T T"
Si       0.70266915       1.80037243      -1.41826946       0.00000000
Si      -1.82666286      -0.75433810      -1.48135381       0.00000000
Si       1.82350260      -1.95379558      -0.14068122       0.00000000
Si      -0.16319322      -1.13960509       3.25507597       0.00000000
Si       2.07925560       0.50450945      -2.95600686       0.00000000
Si      -0.59303745       2.82344959       2.25034403       0.00000000
Si      -2.77320960      -2.48802613      -0.07041005       0.00000000
Si      -0.64197261      -2.20910875      -2.97399128       0.00000000
Si       1.85657130       3.35204380      -0.06784085       0.00000000
Si       3.40881282      -0.92216617      -1.57172726       0.00000000
