10
Lattice="16.28999089631971 0.0 0.0 0.0 16.28999089631971 0.0 0.0 0.0 34.71893929493243" Properties=species:S:1:pos:R:3:initial_magmoms:R:1 pbc="T T T"
Si       1.71336591      -0.49525835      -1.40556232       0.00000000
Si      -1.07979894      -1.99607790       0.30670728       0.00000000
Si      -0.87897582       1.22415277       1.76938229       0.00000000
Si       3.28618170      -0.12636805       0.20730690       0.00000000
Si      -0.35233641      -2.39627433       2.54708697       0.00000000
Si       2.72912886       1.85509705       1.38070355       0.00000000
Si      -3.41479125      -1.43210181       0.03982265       0.00000000
Si       0.76173669       2.79004531       2.38432449       0.00000000
Si      -0.69022359      -0.31576536       3.67073135       0.00000000
Si      -0.28991313      -3.56586375      -1.32772242       0.00000000
