10
Lattice="16.28999089631971 0.0 0.0 0.0 16.28999089631971 0.0 0.0 0.0 34.71893929493243" Properties=species:S:1:pos:R:3:initial_magmoms:R:1 pbc="T T T"
Si       0.21695022      -0.40558842       2.25874601       0.00000000
Si      -1.23575940       1.80219528      -0.88790265       0.00000000
Si      -0.87562008      -1.85849352      -1.22599587       0.00000000
Si       2.27289483       0.80226621      -0.23803318       0.00000000
Si      -3.18696746      -0.89230104      -1.18832580       0.00000000
Si       0.75284235      -1.82996973      -2.98183777       0.00000000
Si       2.24091756      -1.74314403       2.28016761       0.00000000
Si       3.46988403      -1.11029382       0.39947634       0.00000000
Si      -0.66914433       1.71833436      -3.19674812       0.00000000
Si       1.32043482       0.43986258      -3.47245137       0.00000000
