10
Lattice="16.28999089631971 0.0 0.0 0.0 16.28999089631971 0.0 0.0 0.0 34.71893929493243" Properties=species:S:1:pos:R:3:initial_magmoms:R:1 pbc="T T T"
Si      -2.23238160       0.37639674      -0.57310585       0.00000000
Si      -0.09568746       0.64400886       2.28610455       0.00000000
Si       1.44829503       1.17726201      -1.47354205       0.00000000
Si       0.38661057      -2.15821323      -0.94796645       0.00000000
Si      -2.21710158      -0.30975435      -2.82959513       0.00000000
Si      -0.30890727      -1.66705344      -3.20455989       0.00000000
Si       1.04062149       3.44816946      -0.92526025       0.00000000
Si      -1.27604457      -1.13622750       3.38548038       0.00000000
Si      -1.04979276       3.63991905       0.18460070       0.00000000
Si      -3.63849856      -1.05831243       0.64716139       0.00000000
