10
Lattice="16.28999089631971 0.0 0.0 0.0 16.28999089631971 0.0 0.0 0.0 34.71893929493243" Properties=species:S:1:pos:R:3:initial_magmoms:R:1 pbc="T T T"
Si       1.35635427       1.35767376      -1.35740713       0.00000000
Si      -1.35641943      -1.35904212      -1.35646972       0.00000000
Si       1.35765747      -1.35773892       1.35834454       0.00000000
Si      -1.35764118       1.35826020       1.35810151       0.00000000
Si      -0.00532683      -2.71119357      -2.71411988       0.00000000
Si      -2.71496145      -2.71433754       0.00083326       0.00000000
Si       2.71490769      -2.71459818       0.00010416       0.00000000
Si      -0.00100998      -2.71604799       2.71415460       0.00000000
Si      -2.71501358       2.71534752       0.00034719       0.00000000
Si      -2.71530191       0.00197109       2.71536976       0.00000000
