10
Lattice="16.28999089631971 0.0 0.0 0.0 16.28999089631971 0.0 0.0 0.0 34.71893929493243" Properties=species:S:1:pos:R:3:initial_magmoms:R:1 pbc="T T T"
Si      -0.55993617       0.80410698      -2.28002874       0.00000000
Si      -2.12393907      -1.09654506       0.66858299       0.00000000
Si       1.89817596      -1.62548136       0.27688370       0.00000000
Si      -0.60859440       2.00624382       1.53936919       0.00000000
Si      -1.48354659      -0.72578466       3.11817912       0.00000000
Si      -2.95908827       2.21087880       1.12097102       0.00000000
Si       3.71581416      -0.33638850       1.04889446       0.00000000
Si      -0.10557549       1.12772412       3.70687378       0.00000000
Si      -3.92186148       0.38216340       0.03218447       0.00000000
Si       3.45211164       1.98887868      -0.26351690       0.00000000
