10
Lattice="16.28999089631971 0.0 0.0 0.0 16.28999089631971 0.0 0.0 0.0 34.71893929493243" Properties=species:S:1:pos:R:3:initial_magmoms:R:1 pbc="T T T"
Si      -0.93579534       1.74684186       1.33970046       0.00000000
Si       0.89568936       1.27826001      -1.91943763       0.00000000
Si      -1.52373402      -1.94676903      -0.24605326       0.00000000
Si       1.79872551      -0.89909397       1.53042493       0.00000000
Si       2.58066180      -1.51084863      -0.56987699       0.00000000
Si      -2.00492433       0.08808003       2.71817648       0.00000000
Si       3.17780433       0.39356640      -1.96918990       0.00000000
Si      -1.99128960      -1.88902098      -2.63742570       0.00000000
Si      -3.46973742      -1.31975064       1.07510728       0.00000000
Si       0.64990584      -2.68975593       2.71095841       0.00000000
