10
Lattice="16.28999089631971 0.0 0.0 0.0 16.28999089631971 0.0 0.0 0.0 34.71893929493243" Properties=species:S:1:pos:R:3:initial_magmoms:R:1 pbc="T T T"
Si      -1.43448111       1.33389036      -1.22405508       0.00000000
Si      -1.36213722      -1.35200484       1.35971594       0.00000000
Si       1.35597960       1.36423863       1.36662501       0.00000000
Si       1.23919659      -1.30940649      -1.52666900       0.00000000
Si      -0.42270921      -2.41267932      -2.85448658       0.00000000
Si       2.70001863      -2.68467345      -0.01867533       0.00000000
Si       2.70291825       2.69318695       0.01265159       0.00000000
Si      -0.00527796      -2.71078632       2.71875486       0.00000000
Si       2.71003698       0.00500103       2.71951868       0.00000000
Si       2.32515315       0.24394275      -3.04998904       0.00000000
