10
Lattice="16.28999089631971 0.0 0.0 0.0 16.28999089631971 0.0 0.0 0.0 34.71893929493243" Properties=species:S:1:pos:R:3:initial_magmoms:R:1 pbc="T T T"
Si      -1.19728731      -0.37893798      -1.99946483       0.00000000
Si      -1.69199573      -0.25475931       1.67734233       0.00000000
Si       0.76856709       2.26722591      -0.18699631       0.00000000
Si       2.21388105      -0.96023197      -0.14005628       0.00000000
Si       0.07190080       0.39096000       3.14355868       0.00000000
Si       1.66552707       1.96903746      -2.41626593       0.00000000
Si      -1.12316944      -2.73658058      -2.12212691       0.00000000
Si       0.26028651       0.51543189      -3.66180857       0.00000000
Si      -3.43479767       0.35521974      -1.40337503       0.00000000
Si       3.25033230       0.23734530      -1.95301086       0.00000000
