10
Lattice="16.28999089631971 0.0 0.0 0.0 16.28999089631971 0.0 0.0 0.0 34.71893929493243" Properties=species:S:1:pos:R:3:initial_magmoms:R:1 pbc="T T T"
Si       1.07979894       1.99607790      -0.30670728       0.00000000
Si       0.72746253      -0.40019643       2.24037969       0.00000000
Si       0.78988581      -1.56978585      -1.63442970       0.00000000
Si      -2.33499231       0.56397609      -0.26688464       0.00000000
Si       0.20082312       3.22023068       1.46267501       0.00000000
Si       2.79316485       1.50081955      -1.71226961       0.00000000
Si      -3.27082023      -1.55242071       0.16845639       0.00000000
Si       3.09034332      -0.93858093      -1.77323610       0.00000000
Si      -0.34829649      -0.25021440      -3.66264183       0.00000000
Si       0.38957535       1.68031254       3.36402407       0.00000000
