10
Lattice="16.28999089631971 0.0 0.0 0.0 16.28999089631971 0.0 0.0 0.0 34.71893929493243" Properties=species:S:1:pos:R:3:initial_magmoms:R:1 pbc="T T T"
Si       1.29399615      -1.71506007      -0.92519081       0.00000000
Si       1.18864872       1.93536603      -0.74670064       0.00000000
Si      -0.01484019       0.12883761       2.39404580       0.00000000
Si      -2.30661513      -0.09537795      -0.65111935       0.00000000
Si       3.32094456      -1.04076810      -0.01555409       0.00000000
Si      -1.61805312       1.82765655       2.59604070       0.00000000
Si      -3.25210302       0.70745841       1.36928101       0.00000000
Si       3.47394024       1.18729665      -0.77117751       0.00000000
Si       0.48290076      -3.77133048      -0.12606454       0.00000000
Si       0.46118619       2.33556246      -2.98708033       0.00000000
