10
Lattice="16.28999089631971 0.0 0.0 0.0 16.28999089631971 0.0 0.0 0.0 34.71893929493243" Properties=species:S:1:pos:R:3:initial_magmoms:R:1 pbc="T T T"
Si      -1.24623387       1.38629040       1.45585274       0.00000000
Si       0.71531019       1.96911402      -1.25847688       0.00000000
Si       1.48165695      -1.32621355       1.42732070       0.00000000
Si      -1.88069679      -0.99366394      -1.22813251       0.00000000
Si      -2.74274730       2.61576186       0.06083803       0.00000000
Si       2.72103273       2.68799172       0.04137805       0.00000000
Si      -2.59263495       0.03303286       2.81934957       0.00000000
Si      -3.62001267       0.68086824      -1.11357970       0.00000000
Si       0.12059487      -2.68636339       2.81205859       0.00000000
Si       0.12062745       2.74163469       2.81886350       0.00000000
