10
Lattice="16.28999089631971 0.0 0.0 0.0 16.28999089631971 0.0 0.0 0.0 34.71893929493243" Properties=species:S:1:pos:R:3:initial_magmoms:R:1 pbc="T T T"
Si      -1.49033952      -0.22281462      -1.79040223       0.00000000
Si      -1.84466331      -0.83934551       1.28249091       0.00000000
Si       1.73931588      -1.67453218      -0.11455281       0.00000000
Si       0.87726537       1.93489362       1.17441773       0.00000000
Si       1.89618858       0.66422475      -2.50894580       0.00000000
Si      -0.33907635      -2.03579095       2.58405953       0.00000000
Si       2.37377880       0.70542216       2.56943244       0.00000000
Si      -1.95519096      -2.51774072      -1.65853963       0.00000000
Si      -0.26137305       0.41003559      -3.67109350       0.00000000
Si       1.17030618       2.88059328      -2.03412932       0.00000000
