10
Lattice="16.28999089631971 0.0 0.0 0.0 16.28999089631971 0.0 0.0 0.0 34.71893929493243" Properties=species:S:1:pos:R:3:initial_magmoms:R:1 pbc="T T T"
Si      -1.34640108      -1.35325754       1.36349683       0.00000000
Si       1.36686132       1.35534429       1.36301077       0.00000000
Si       1.24623387      -1.38629040      -1.45585274       0.00000000
Si      -1.49651343       1.22947146      -1.39501470       0.00000000
Si       1.96154406       0.58282362      -2.71432962       0.00000000
Si       0.15732882       2.28016017      -2.68618875       0.00000000
Si      -2.37377880      -0.70542216      -2.56943244       0.00000000
Si      -0.63446292      -2.37995434      -2.68398525       0.00000000
Si      -2.70611109      -0.00164529       2.72083452       0.00000000
Si       0.00961110       2.71371852       2.72048733       0.00000000
