10
Lattice="16.28999089631971 0.0 0.0 0.0 16.28999089631971 0.0 0.0 0.0 34.71893929493243" Properties=species:S:1:pos:R:3:initial_magmoms:R:1 pbc="T T T"
Si      -0.77075646      -0.75552598       2.11124298       0.00000000
Si      -1.24324465       1.74716277      -1.10211862       0.00000000
Si       1.87463202       1.22351095       0.97841498       0.00000000
Si       0.25566666      -1.73051506      -1.72768482       0.00000000
Si       0.82575150      -2.53879228       2.36345809       0.00000000
Si      -0.06468596       1.08489119       3.44913208       0.00000000
Si       2.34352338      -0.96776839      -2.62850293       0.00000000
Si      -2.55288313       0.48970998      -2.69821859       0.00000000
Si       0.83208831       2.94545517       2.28361247       0.00000000
Si      -1.81092250      -1.76483809      -2.87802808       0.00000000
