10
Lattice="16.28999089631971 0.0 0.0 0.0 16.28999089631971 0.0 0.0 0.0 34.71893929493243" Properties=species:S:1:pos:R:3:initial_magmoms:R:1 pbc="T T T"
Si       1.61261226      -1.25603719       1.18888204       0.00000000
Si       1.61655444       1.67682092      -0.57383495       0.00000000
Si      -1.04254371       1.72194422       1.30519749       0.00000000
Si      -1.87463202      -1.22351095      -0.97841498       0.00000000
Si      -1.93931798      -0.13861975       2.47071710       0.00000000
Si      -2.64538849      -1.97903693       1.13282800       0.00000000
Si       3.64052178       0.33926531      -0.55241335       0.00000000
Si       0.82251468       2.70081032       2.39169328       0.00000000
Si       3.17567034      -1.95566078      -0.42055075       0.00000000
Si       1.39960422       2.08240934      -2.83258096       0.00000000
