10
Lattice="16.28999089631971 0.0 0.0 0.0 16.28999089631971 0.0 0.0 0.0 34.71893929493243" Properties=species:S:1:pos:R:3:initial_magmoms:R:1 pbc="T T T"
Si       1.51868412      -0.42293727       1.70181920       0.00000000
Si       0.80164719       2.02681809      -0.92467003       0.00000000
Si       0.55705284      -1.98146510      -1.17339665       0.00000000
Si      -1.96739217       0.93494826       1.00362094       0.00000000
Si       1.20756141       1.59617565       2.79466786       0.00000000
Si      -2.72912886      -1.85509705      -1.38070355       0.00000000
Si       3.45664026      -0.88630632       0.40280936       0.00000000
Si       1.48558284       3.12683292       1.04222842       0.00000000
Si      -3.60810468      -0.63094428       0.38867874       0.00000000
Si       2.83771800      -1.72709512      -1.66494766       0.00000000
