10
Lattice="16.28999089631971 0.0 0.0 0.0 16.28999089631971 0.0 0.0 0.0 34.71893929493243" Properties=species:S:1:pos:R:3:initial_magmoms:R:1 pbc="T T T"
Si       1.42718319      -1.27692423       1.41022855       0.00000000
Si      -1.30733766       1.42130250       1.39515358       0.00000000
Si       0.74140677       1.82298132      -1.39992192       0.00000000
Si      -1.14578973      -1.72159236      -1.27817874       0.00000000
Si      -0.57888144       1.12775670      -3.38570748       0.00000000
Si       0.65842551      -3.41892891      -1.30631961       0.00000000
Si       2.66414805      -2.70005121      -0.00646467       0.00000000
Si       2.64183075       2.73983139      -0.07201754       0.00000000
Si       0.06374277      -2.64640824       2.77102078       0.00000000
Si      -2.64916125       0.07387515       2.77008337       0.00000000
