10
Lattice="16.28999089631971 0.0 0.0 0.0 16.28999089631971 0.0 0.0 0.0 34.71893929493243" Properties=species:S:1:pos:R:3:initial_magmoms:R:1 pbc="T T T"
Si       1.34182359       1.34742735      -1.37492979       0.00000000
Si      -1.35988920       1.35138582       1.35990689       0.00000000
Si       1.35565380      -1.36190916       1.35841398       0.00000000
Si      -1.38406356      -1.35325917      -1.38342899       0.00000000
Si       2.64916125      -0.07387515      -2.77008337       0.00000000
Si      -2.71347417       2.71034649      -0.00385380       0.00000000
Si       2.71388142       2.71296918       0.00086797       0.00000000
Si      -0.00087966       2.71158453       2.71641133       0.00000000
Si       2.71363707      -0.00263898       2.71661964       0.00000000
Si      -2.71321353      -2.71790505       0.00093741       0.00000000
