10
Lattice="16.28999089631971 0.0 0.0 0.0 16.28999089631971 0.0 0.0 0.0 34.71893929493243" Properties=species:S:1:pos:R:3:initial_magmoms:R:1 pbc="T T T"
Si      -0.32633757       0.57339171       2.51472890       0.00000000
Si       0.55493514       2.66005926      -0.76711539       0.00000000
Si      -2.90647809       0.17511750      -0.44405548       0.00000000
Si       1.41763725       1.07828397      -2.41775885       0.00000000
Si      -1.87310565      -1.23341364      -2.12636263       0.00000000
Si      -2.56551210       1.08230760       1.92284009       0.00000000
Si       3.05269713      -0.41104557       1.61276507       0.00000000
Si      -0.35622972      -0.12491172      -3.63014488       0.00000000
Si       0.28365777      -1.50291540       3.54105604       0.00000000
Si       3.23991810      -0.60362595      -2.35009160       0.00000000
