10
Lattice="16.28999089631971 0.0 0.0 0.0 16.28999089631971 0.0 0.0 0.0 34.71893929493243" Properties=species:S:1:pos:R:3:initial_magmoms:R:1 pbc="T T T"
Si      -1.62241884       0.71975736       1.50881651       0.00000000
Si       1.08356193       2.02140981      -0.41096831       0.00000000
Si      -0.93626775      -1.21037958      -1.80555945       0.00000000
Si       1.53523476      -1.27332414       1.30650913       0.00000000
Si      -3.41844021      -0.01270620       0.24032463       0.00000000
Si       2.53205244       1.30305339      -2.07560351       0.00000000
Si       1.87212825       0.41936976       3.01343202       0.00000000
Si       2.13974037       2.35892232       1.65661511       0.00000000
Si      -3.08429973      -1.87906779      -1.08861295       0.00000000
Si       0.45695079      -3.38519232       1.83597325       0.00000000
