10
Lattice="16.28999089631971 0.0 0.0 0.0 16.28999089631971 0.0 0.0 0.0 34.71893929493243" Properties=species:S:1:pos:R:3:initial_magmoms:R:1 pbc="T T T"
Si      -0.92541861      -1.34226342       1.67091933       0.00000000
Si       1.53179757      -1.47575997      -1.09052249       0.00000000
Si       1.00229112       1.61207469       1.48076359       0.00000000
Si      -0.98070687       1.75648554      -1.35778904       0.00000000
Si      -2.04397146       1.66778649       1.51239256       0.00000000
Si      -3.10638897      -0.56027826       1.35646972       0.00000000
Si       0.77535513       1.96607268      -2.97576195       0.00000000
Si      -0.19953621      -3.55863195       1.19610285       0.00000000
Si       3.46740795      -0.17137080      -1.54391737       0.00000000
Si       2.12687127      -3.10585140       0.63584301       0.00000000
