10
Lattice="16.28999089631971 0.0 0.0 0.0 16.28999089631971 0.0 0.0 0.0 34.71893929493243" Properties=species:S:1:pos:R:3:initial_magmoms:R:1 pbc="T T T"
Si      -1.39176873       1.27490427       1.40773226       0.00000000
Si       1.73864799       0.91429254      -1.39367251       0.00000000
Si       1.31976693      -1.47295809       1.41157565       0.00000000
Si      -1.77997572      -1.09903743      -1.23735452       0.00000000
Si       3.36851136      -1.07127927      -1.38349985       0.00000000
Si      -0.02503773       2.60706789       2.78636656       0.00000000
Si       2.80403028       2.59237431      -0.07003856       0.00000000
Si       2.69182476      -0.10741626       2.78737341       0.00000000
Si      -0.99803943      -1.71079209      -3.33765644       0.00000000
Si      -2.85259077       2.65017123      -0.10026141       0.00000000
