10
Lattice="16.28999089631971 0.0 0.0 0.0 16.28999089631971 0.0 0.0 0.0 34.71893929493243" Properties=species:S:1:pos:R:3:initial_magmoms:R:1 pbc="T T T"
Si       1.44849051      -0.71835642      -1.66463519       0.00000000
Si      -1.08356193      -2.02140981       0.41096831       0.00000000
Si       1.05617844       0.33751251       2.06758343       0.00000000
Si      -0.81814896       2.07640485      -0.75072804       0.00000000
Si       1.25416710       1.22311836      -3.05974711       0.00000000
Si      -2.70598077      -1.30165245       1.91978482       0.00000000
Si       3.33158193       0.11901474       1.36851719       0.00000000
Si       3.26795319      -1.56991617      -0.26768317       0.00000000
Si       0.45167283      -3.29473395       1.71747745       0.00000000
Si       0.24869943       2.40349176       2.91569815       0.00000000
