10
Lattice="16.28999089631971 0.0 0.0 0.0 16.28999089631971 0.0 0.0 0.0 34.71893929493243" Properties=species:S:1:pos:R:3:initial_magmoms:R:1 pbc="T T T"
Si       1.06538229       1.67808177       1.32363395       0.00000000
Si      -1.73864799      -0.91429254       1.39367251       0.00000000
Si       1.62986337      -1.98557181       0.01017265       0.00000000
Si      -0.00803097       0.36887076      -2.61107401       0.00000000
Si       0.30957516      -2.68079643      -1.97561291       0.00000000
Si       2.30746221       0.32835753       2.82180563       0.00000000
Si      -0.41888106      -2.38725063       2.80524816       0.00000000
Si       1.67826096      -1.24766739      -3.19136668       0.00000000
Si       2.75977035       2.72753244       0.09790746       0.00000000
Si       3.53028735      -1.06872174       1.33807704       0.00000000
