10
Lattice="16.28999089631971 0.0 0.0 0.0 16.28999089631971 0.0 0.0 0.0 34.71893929493243" Properties=species:S:1:pos:R:3:initial_magmoms:R:1 pbc="T T T"
Si      -1.35671265       1.35751086       1.35955970       0.00000000
Si       1.35830907      -1.35998694       1.35938611       0.00000000
Si      -1.36673100      -1.33216362      -1.37863430       0.00000000
Si       1.36055709       1.35112518      -1.39699368       0.00000000
Si       0.02503773      -2.60706789      -2.78636656       0.00000000
Si      -0.20079054       2.59990029      -2.81324250       0.00000000
Si      -2.71077003       2.71674846       0.00666604       0.00000000
Si      -2.71049310      -2.71710684      -0.00371493       0.00000000
Si      -2.71257822      -0.00083079       2.71623773       0.00000000
Si       2.71585251       2.71425609      -0.00572863       0.00000000
