10
Lattice="16.28999089631971 0.0 0.0 0.0 16.28999089631971 0.0 0.0 0.0 34.71893929493243" Properties=species:S:1:pos:R:3:initial_magmoms:R:1 pbc="T T T"
Si       1.35728280       1.35698958      -1.35761544       0.00000000
Si      -1.35707103      -1.35809730      -1.35695578       0.00000000
Si      -1.35803214       1.35910728       1.35699050       0.00000000
Si       1.35641943      -1.36031274       1.36053183       0.00000000
Si      -0.01487277       2.70905958       2.71030079       0.00000000
Si       0.00019548       2.71432125      -2.71457122       0.00000000
Si      -2.71376739       2.71546155      -0.00079854       0.00000000
Si      -2.71393029      -0.00081450      -2.71530032       0.00000000
Si       2.71524978      -0.00120546      -2.71450179       0.00000000
Si       2.71598283       2.71410948       0.00149292       0.00000000
