10
Lattice="16.28999089631971 0.0 0.0 0.0 16.28999089631971 0.0 0.0 0.0 34.71893929493243" Properties=species:S:1:pos:R:3:initial_magmoms:R:1 pbc="T T T"
Si      -1.35740565      -1.35759231      -1.39354956       0.00000000
Si       1.35939887       1.35576783      -1.39393147       0.00000000
Si       1.36132109      -1.43135343       1.44750283       0.00000000
Si      -1.42834860       1.46761497       1.49367904       0.00000000
Si      -2.69984826       2.70971118      -0.05242563       0.00000000
Si      -2.72488599      -2.70234810      -0.01791498       0.00000000
Si       2.72222027       2.71700910       0.00534672       0.00000000
Si       2.71798487      -2.73540051      -0.01791498       0.00000000
Si      -2.71229382      -0.00086337      -2.75744914       0.00000000
Si       0.00260151       2.71482624      -2.75755329       0.00000000
