10
Lattice="16.28999089631971 0.0 0.0 0.0 16.28999089631971 0.0 0.0 0.0 34.71893929493243" Properties=species:S:1:pos:R:3:initial_magmoms:R:1 pbc="T T T"
Si       0.03559365       1.47021064      -1.90909138       0.00000000
Si      -0.48839049      -2.29671081      -0.68503977       0.00000000
Si       2.30925411       0.15768720       0.87200137       0.00000000
Si      -1.52767620       0.37510236       1.95130964       0.00000000
Si       1.99492227      -2.30767398      -1.31553606       0.00000000
Si      -0.08866647       3.59486810      -0.83512983       0.00000000
Si      -0.52359318      -3.40938297       1.35851813       0.00000000
Si       3.01560480      -2.12072994       0.78548172       0.00000000
Si       2.32020099       1.28232178      -2.70575261       0.00000000
Si      -1.90488744      -1.92582009       2.66058324       0.00000000
