10
Lattice="16.28999089631971 0.0 0.0 0.0 16.28999089631971 0.0 0.0 0.0 34.71893929493243" Properties=species:S:1:pos:R:3:initial_magmoms:R:1 pbc="T T T"
Si       0.35212464       2.14187436       0.75121411       0.00000000
Si      -1.45748259      -0.41563935       1.81607929       0.00000000
Si       2.26424484      -0.83805534      -0.26275308       0.00000000
Si      -1.49209884       0.76996314      -1.82521038       0.00000000
Si      -0.11080458      -0.71359974      -3.12727549       0.00000000
Si      -1.75609458      -2.64725532       1.03670811       0.00000000
Si       2.20833756      -1.13254596      -2.61058794       0.00000000
Si       0.52602039      -3.53194893       0.98695584       0.00000000
Si      -3.45828555       1.08027135       1.60991811       0.00000000
Si       0.32738013       3.88014183      -0.79586269       0.00000000
