10
Lattice="16.28999089631971 0.0 0.0 0.0 16.28999089631971 0.0 0.0 0.0 34.71893929493243" Properties=species:S:1:pos:R:3:initial_magmoms:R:1 pbc="T T T"
Si       0.70635069      -2.27841714      -0.08651965       0.00000000
Si      -0.11100006       1.24735855       2.05609145       0.00000000
Si       1.49740938       0.86604223      -1.73820467       0.00000000
Si      -2.30925411      -0.15768720      -0.87200137       0.00000000
Si      -0.31433184      -2.46536118      -2.18753743       0.00000000
Si       0.01094688       1.12463458      -3.57775397       0.00000000
Si       0.49414086       3.45501845       1.44958596       0.00000000
Si      -2.27366046       1.31252344      -2.78109275       0.00000000
Si      -2.39466258       1.02667140       2.81792956       0.00000000
Si       3.04683273      -0.88946658      -2.26020421       0.00000000
