10
Lattice="16.28999089631971 0.0 0.0 0.0 16.28999089631971 0.0 0.0 0.0 34.71893929493243" Properties=species:S:1:pos:R:3:initial_magmoms:R:1 pbc="T T T"
Si       1.35614806      -1.35719350      -1.36442036       0.00000000
Si      -1.35853713       1.36171243      -1.36376070       0.00000000
Si      -1.36627488      -1.35176893       1.38841116       0.00000000
Si       1.36101388       1.36430254       1.38237006       0.00000000
Si       2.71230848      -2.71377583      -0.00624941       0.00000000
Si       2.71400264       2.71578610      -0.00534672       0.00000000
Si      -2.71534752      -2.71605643      -0.00468706       0.00000000
Si       2.71349765       0.00147716      -2.72102895       0.00000000
Si      -0.00112719      -2.71371067      -2.72127198       0.00000000
Si      -2.71919196       2.71809928      -0.00593694       0.00000000
