10
Lattice="16.28999089631971 0.0 0.0 0.0 16.28999089631971 0.0 0.0 0.0 34.71893929493243" Properties=species:S:1:pos:R:3:initial_magmoms:R:1 pbc="T T T"
Si       0.57287043      -1.53127303      -1.63991530       0.00000000
Si      -1.39984857       1.84733487       0.38794964       0.00000000
Si      -0.73850715      -1.67703595       1.50364338       0.00000000
Si       1.92332772       1.42669449       0.70819732       0.00000000
Si       1.72804320       0.40358475       2.83372669       0.00000000
Si       0.47809521      -3.39181325       0.50550804       0.00000000
Si       0.37175409       3.17234718       1.53909144       0.00000000
Si       1.99567161      -0.22460652      -2.98100451       0.00000000
Si      -2.58735699       1.88429688      -1.71893565       0.00000000
Si      -0.11958489      -0.83624715       3.57140041       0.00000000
