10
Lattice="16.28999089631971 0.0 0.0 0.0 16.28999089631971 0.0 0.0 0.0 34.71893929493243" Properties=species:S:1:pos:R:3:initial_magmoms:R:1 pbc="T T T"
Si       0.57176271       1.75532895      -1.49669959       0.00000000
Si       1.18892958      -1.98949770      -1.02747286       0.00000000
Si       1.29028107       0.75678453       2.06754871       0.00000000
Si      -2.62972728      -0.83406429      -0.77815602       0.00000000
Si      -2.51700048      -0.66282381       2.14615243       0.00000000
Si      -0.51127794       0.05605389       3.44600737       0.00000000
Si      -1.28919060       2.10041631      -2.95791641       0.00000000
Si       2.21172655       1.00981710      -3.02586141       0.00000000
Si       3.26426255      -0.79120530       2.35825823       0.00000000
Si       2.51944302      -1.32304122      -2.96784603       0.00000000
