10
Lattice="16.28999089631971 0.0 0.0 0.0 16.28999089631971 0.0 0.0 0.0 34.71893929493243" Properties=species:S:1:pos:R:3:initial_magmoms:R:1 pbc="T T T"
Si      -1.34674317      -1.35360126       1.34976896       0.00000000
Si       1.35681039      -1.35451350      -1.35396995       0.00000000
Si      -1.35609363       1.35953082      -1.35445602       0.00000000
Si       1.36925595       1.35606105       1.35105356       0.00000000
Si      -2.64046239       0.05160672       2.67912317       0.00000000
Si      -0.01137042      -2.53301355       2.86580701       0.00000000
Si       2.71169856      -2.71124244       0.00992962       0.00000000
Si      -0.00071676      -2.71244790      -2.71116877       0.00000000
Si       2.71421619       0.00232947      -2.71144652       0.00000000
Si      -2.71456560      -2.71135647       0.00635357       0.00000000
