10
Lattice="16.28999089631971 0.0 0.0 0.0 16.28999089631971 0.0 0.0 0.0 34.71893929493243" Properties=species:S:1:pos:R:3:initial_magmoms:R:1 pbc="T T T"
Si       0.58758030       1.97635167      -1.12857447       0.00000000
Si       0.51953697      -1.62108306      -1.62890939       0.00000000
Si       1.44559089      -0.66220479       1.77167374       0.00000000
Si      -2.22870006       0.25153389       0.85658615       0.00000000
Si       0.97521714      -2.95151994       1.70036100       0.00000000
Si       2.68571601       1.39696524      -2.08747739       0.00000000
Si      -1.33902171      -1.64910186      -3.02416018       0.00000000
Si      -1.89180657       1.94422779       2.56350903       0.00000000
Si       0.65120904       3.66528258       0.50762590       0.00000000
Si       1.10218140      -3.65241348      -0.56150972       0.00000000
