10
Lattice="16.28999089631971 0.0 0.0 0.0 16.28999089631971 0.0 0.0 0.0 34.71893929493243" Properties=species:S:1:pos:R:3:initial_magmoms:R:1 pbc="T T T"
Si       1.69438806       1.04945067      -1.22572649       0.00000000
Si       1.24207992      -1.34972424       1.49817167       0.00000000
Si      -1.06538229      -1.67808177      -1.32363395       0.00000000
Si      -1.46851092       1.36581876       1.45941143       0.00000000
Si       3.30424731      -0.70147998      -0.92850543       0.00000000
Si       2.46490506      -2.74680351       0.01444309       0.00000000
Si      -2.80403028      -2.59237431       0.07003856       0.00000000
Si       2.68025886       2.76408720       0.01459932       0.00000000
Si       2.60286507       0.01363473       2.85786331       0.00000000
Si       0.56448108      -3.66365358      -1.31346130       0.00000000
