10
Lattice="16.28999089631971 0.0 0.0 0.0 16.28999089631971 0.0 0.0 0.0 34.71893929493243" Properties=species:S:1:pos:R:3:initial_magmoms:R:1 pbc="T T T"
Si      -1.23416298       1.37160171       1.41580442       0.00000000
Si       1.34460918       1.36034532      -1.34983840       0.00000000
Si      -1.36925595      -1.35606105      -1.35105356       0.00000000
Si       1.27149966      -1.24209621       1.54610467       0.00000000
Si      -0.59999328      -1.84524975       2.88934646       0.00000000
Si      -2.43926460      -0.17409123       2.70759271       0.00000000
Si       2.27672528       0.52527105       2.93941120       0.00000000
Si       2.70244977       0.00511506      -2.70512767       0.00000000
Si       2.69984826      -2.70971118       0.05242563       0.00000000
Si      -0.01244556      -2.71057455      -2.70502351       0.00000000
