10
Lattice="16.28999089631971 0.0 0.0 0.0 16.28999089631971 0.0 0.0 0.0 34.71893929493243" Properties=species:S:1:pos:R:3:initial_magmoms:R:1 pbc="T T T"
Si       1.11824334       0.43554573       2.05970222       0.00000000
Si      -2.23904421      -0.46244052       0.77523963       0.00000000
Si      -0.10526598       1.85313411      -1.63713778       0.00000000
Si       1.23426072      -1.94484681      -1.37417639       0.00000000
Si      -2.26934361       0.83354301      -2.54368451       0.00000000
Si       1.76050917      -1.79292627       2.48546082       0.00000000
Si      -2.06941644       0.74310093       2.81872810       0.00000000
Si       2.70718201       1.99075203      -1.49218613       0.00000000
Si      -3.87856755      -0.10941993      -1.01309921       0.00000000
Si      -0.42870393       4.00496166      -0.28663972       0.00000000
