10
Lattice="16.28999089631971 0.0 0.0 0.0 16.28999089631971 0.0 0.0 0.0 34.71893929493243" Properties=species:S:1:pos:R:3:initial_magmoms:R:1 pbc="T T T"
Si       0.79988787       1.69354098      -1.41129095       0.00000000
Si      -0.06362874      -1.68893091      -1.63620037       0.00000000
Si       1.24820496      -0.45040221       1.97891121       0.00000000
Si      -2.27540349       0.21849777       0.69906623       0.00000000
Si      -3.33158193      -0.11901474      -1.36851719       0.00000000
Si      -0.47138373      -1.60922394       3.24354928       0.00000000
Si      -1.88309142      -0.83737116      -3.03315239       0.00000000
Si      -2.54301561      -1.72105479       2.05588314       0.00000000
Si       0.43482897       3.67504029      -0.09728252       0.00000000
Si      -0.65120904      -3.66528258      -0.50762590       0.00000000
