10
Lattice="16.28999089631971 0.0 0.0 0.0 16.28999089631971 0.0 0.0 0.0 34.71893929493243" Properties=species:S:1:pos:R:3:initial_magmoms:R:1 pbc="T T T"
Si      -1.36106208      -1.36014984       1.38473789       0.00000000
Si       1.35575154       1.35799860       1.39272325       0.00000000
Si       1.43241228      -1.32501231      -1.45133927       0.00000000
Si      -1.48165695       1.32621355      -1.42732070       0.00000000
Si       2.69089413      -2.69289990       0.05406783       0.00000000
Si       2.69364893       2.69105003       0.01993215       0.00000000
Si      -2.71635750      -2.72328075      -0.00652716       0.00000000
Si      -2.72789082       2.71250396       0.02853204       0.00000000
Si      -0.00338832       2.71147769       2.74894994       0.00000000
Si       2.71179773      -0.00382547       2.75089420       0.00000000
