10
Lattice="16.28999089631971 0.0 0.0 0.0 16.28999089631971 0.0 0.0 0.0 34.71893929493243" Properties=species:S:1:pos:R:3:initial_magmoms:R:1 pbc="T T T"
Si      -1.14111450      -0.58925817       1.90673049       0.00000000
Si       2.06110921      -1.01485071       0.21095239       0.00000000
Si       1.06792353       2.02951801       0.54737910       0.00000000
Si      -1.27234674      -0.62910351      -1.91107036       0.00000000
Si       0.02088378       0.94249053      -3.36697518       0.00000000
Si      -0.57679632       3.49805663      -0.30108281       0.00000000
Si       2.82631241      -0.81459774      -2.02783022       0.00000000
Si       3.08926071       0.41720319       1.82378690       0.00000000
Si      -0.99916344      -2.93492043       2.04824497       0.00000000
Si      -1.19571858       2.65726782      -2.36883983       0.00000000
