10
Lattice="16.28999089631971 0.0 0.0 0.0 16.28999089631971 0.0 0.0 0.0 34.71893929493243" Properties=species:S:1:pos:R:3:initial_magmoms:R:1 pbc="T T T"
Si       1.27234674       0.62910351       1.91107036       0.00000000
Si      -2.29234509       0.63793269       0.42860555       0.00000000
Si       1.29323052       1.57159404      -1.45590481       0.00000000
Si       0.32343795      -2.15182755      -1.35049806       0.00000000
Si       0.07662816       3.28637133      -0.45776947       0.00000000
Si      -2.20403700       3.03200136       0.03378155       0.00000000
Si       0.13123224       0.03984534       3.81780086       0.00000000
Si      -3.47967432       0.22371057      -1.64005417       0.00000000
Si       3.13588594      -2.01420963      -1.20554640       0.00000000
Si       3.33345595      -0.38574720       2.12202276       0.00000000
