10
Lattice="16.28999089631971 0.0 0.0 0.0 16.28999089631971 0.0 0.0 0.0 34.71893929493243" Properties=species:S:1:pos:R:3:initial_magmoms:R:1 pbc="T T T"
Si      -2.20765338       0.67582323       0.36378525       0.00000000
Si      -0.05589099      -2.00192697      -1.23280079       0.00000000
Si       0.07913682       1.67048641      -1.67939075       0.00000000
Si       2.38493745       1.43175646      -2.18014229       0.00000000
Si       1.20153411      -2.31909327       2.58371547       0.00000000
Si       2.11248720      -2.80991097      -1.39660483       0.00000000
Si      -2.60736111       1.05310519       2.61992734       0.00000000
Si      -0.12408093       3.84464267      -0.33472548       0.00000000
Si       3.12689808      -0.82279161      -2.35995178       0.00000000
Si      -3.87167688      -0.09347202      -1.09323057       0.00000000
