10
Lattice="16.28999089631971 0.0 0.0 0.0 16.28999089631971 0.0 0.0 0.0 34.71893929493243" Properties=species:S:1:pos:R:3:initial_magmoms:R:1 pbc="T T T"
Si      -1.35784059       1.35523026       1.35528927       0.00000000
Si       1.35766073       1.35628911      -1.35726825       0.00000000
Si      -1.35748953      -1.35884664      -1.35737241       0.00000000
Si       1.35679736      -1.35905841       1.36362182       0.00000000
Si      -2.70244977      -0.00511506       2.70512767       0.00000000
Si      -2.71419486       2.71244790      -0.00045135       0.00000000
Si       0.00028833       2.71337643      -2.71502257       0.00000000
Si      -2.71496049      -0.00149868      -2.71491841       0.00000000
Si      -2.71489533      -2.71568961       0.00010416       0.00000000
Si       2.71530191      -0.00197109      -2.71536976       0.00000000
