10
Lattice="16.28999089631971 0.0 0.0 0.0 16.28999089631971 0.0 0.0 0.0 34.71893929493243" Properties=species:S:1:pos:R:3:initial_magmoms:R:1 pbc="T T T"
Si       1.57683453       0.71436537      -1.60401589       0.00000000
Si      -0.22423348      -2.32850889      -0.55071212       0.00000000
Si      -2.08718461       1.19620728       0.12057894       0.00000000
Si       0.97421856       0.44077482       2.16184540       0.00000000
Si       0.95336736       2.88121230       1.94960841       0.00000000
Si       3.40305756      -0.72151668      -0.99869085       0.00000000
Si      -1.21239532       3.30745644       0.95810438       0.00000000
Si       0.31456479      -3.30248799       1.56145045       0.00000000
Si      -2.54100772      -2.68087788      -0.59428442       0.00000000
Si       0.62268362       0.59855976      -3.76766668       0.00000000
