10
Lattice="16.28999089631971 0.0 0.0 0.0 16.28999089631971 0.0 0.0 0.0 34.71893929493243" Properties=species:S:1:pos:R:3:initial_magmoms:R:1 pbc="T T T"
Si       1.35694071      -1.35692442      -1.35851813       0.00000000
Si      -1.35783014       1.35852084      -1.35747657       0.00000000
Si       1.35669636       1.34008056       1.38164096       0.00000000
Si      -1.35298876      -1.35148356       1.38771678       0.00000000
Si       2.71410948       0.00081450      -2.71536976       0.00000000
Si       2.71329498      -2.71626695       0.00083326       0.00000000
Si      -2.71400264      -2.71578610       0.00534672       0.00000000
Si      -0.00050499      -2.71430894      -2.71568223       0.00000000
Si      -0.00100998       2.71598283      -2.71571695       0.00000000
Si      -2.71550657       0.00127062      -2.71623773       0.00000000
