10
Lattice="16.28999089631971 0.0 0.0 0.0 16.28999089631971 0.0 0.0 0.0 34.71893929493243" Properties=species:S:1:pos:R:3:initial_magmoms:R:1 pbc="T T T"
Si      -1.35616042       1.35658233      -1.35817095       0.00000000
Si       1.35845568      -1.35454608      -1.35817095       0.00000000
Si      -1.35980938      -1.35164646       1.37282235       0.00000000
Si       1.35553977       1.36806678       1.36580912       0.00000000
Si      -2.71230848       2.71377583       0.00624941       0.00000000
Si       0.00066789      -2.71383255      -2.71436291       0.00000000
Si       2.71498914       2.71329498       0.00173595       0.00000000
Si      -2.71343566       0.00006516      -2.71502257       0.00000000
Si      -2.71483343      -2.71489140      -0.00180539       0.00000000
Si       0.00118917       2.71525299      -2.71477954       0.00000000
