10
Lattice="16.28999089631971 0.0 0.0 0.0 16.28999089631971 0.0 0.0 0.0 34.5300574570662" Properties=species:S:1:pos:R:3:initial_magmoms:R:1 pbc="T T T"
Si      -1.38580659      -1.25778578      -1.40457993       0.00000000
Si       1.26294741       1.54885809      -1.28862793       0.00000000
Si      -1.71419670       0.97861035       1.45810155       0.00000000
Si       1.61484399      -1.10252512       1.56041417       0.00000000
Si      -0.79610859       0.25371349       3.62293018       0.00000000
Si       3.21437538       0.76280043       1.73385874       0.00000000
Si       0.01340667      -2.55546347      -2.72998240       0.00000000
Si      -3.00393464      -2.27270165      -0.08532382       0.00000000
Si       2.62133793       2.71499403       0.39074235       0.00000000
Si       2.70159876       0.20270136      -2.71948525       0.00000000
