10
Lattice="16.28999089631971 0.0 0.0 0.0 16.28999089631971 0.0 0.0 0.0 34.5300574570662" Properties=species:S:1:pos:R:3:initial_magmoms:R:1 pbc="T T T"
Si      -1.26842085       1.36539522      -1.43752163       0.00000000
Si      -1.26294741      -1.54885809       1.28862793       0.00000000
Si       1.43865135      -1.34615673      -1.43085732       0.00000000
Si       1.35839052       1.16613594       1.67937028       0.00000000
Si       2.65743657       2.51791272       0.03708530       0.00000000
Si       1.95142797      -0.78605766       3.02248668       0.00000000
Si      -2.58444108       2.69599500       0.04147062       0.00000000
Si      -2.62848924       0.00724905      -2.80732977       0.00000000
Si      -2.64875400      -2.80664387      -0.11595200       0.00000000
Si       0.08902485      -2.70994643      -2.80518891       0.00000000
