10
Lattice="16.28999089631971 0.0 0.0 0.0 16.28999089631971 0.0 0.0 0.0 34.5300574570662" Properties=species:S:1:pos:R:3:initial_magmoms:R:1 pbc="T T T"
Si      -1.35078309       1.35694071       1.35865493       0.00000000
Si       1.38404727       1.34846991      -1.34150384       0.00000000
Si       1.36288656      -1.36155078       1.35803339       0.00000000
Si      -1.35016407      -1.36099692      -1.37806429       0.00000000
Si       0.25601364      -2.51491536      -2.68337715       0.00000000
Si       2.64813498      -0.08861760      -2.74545533       0.00000000
Si      -2.71056966       2.71073745      -0.00317677       0.00000000
Si      -2.71028785      -0.00177561       2.71585960       0.00000000
Si      -2.70716505      -2.72132595      -0.00120855       0.00000000
Si       0.00444717       2.71303434       2.71672285       0.00000000
