10
Lattice="16.28999089631971 0.0 0.0 0.0 16.28999089631971 0.0 0.0 0.0 34.5300574570662" Properties=species:S:1:pos:R:3:initial_magmoms:R:1 pbc="T T T"
Si       1.35532800       1.35754344       1.35789527       0.00000000
Si      -1.35702216       1.35751086      -1.35737732       0.00000000
Si       1.35812988      -1.35801585      -1.35723920       0.00000000
Si      -1.35861858      -1.35984033       1.35824057       0.00000000
Si      -0.00185706      -2.71197549      -2.71420215       0.00000000
Si       0.00236205      -2.71303434       2.71610131       0.00000000
Si      -2.71450044      -2.71476108      -0.00017265       0.00000000
Si      -2.71476108       0.00138465       2.71468557       0.00000000
Si       0.00553860       2.71422351       2.71527259       0.00000000
Si      -0.00078192       2.71608057      -2.71361514       0.00000000
