10
Lattice="16.28999089631971 0.0 0.0 0.0 16.28999089631971 0.0 0.0 0.0 34.5300574570662" Properties=species:S:1:pos:R:3:initial_magmoms:R:1 pbc="T T T"
Si      -1.35870003       1.35588186      -1.35727373       0.00000000
Si       1.35614250      -1.36122498      -1.35644501       0.00000000
Si       1.36093176       1.33648047       1.37895862       0.00000000
Si      -1.35790182      -1.35576783       1.37288132       0.00000000
Si      -0.05346378       2.72479572       2.68847725       0.00000000
Si      -0.00013032       2.71371852      -2.71430574       0.00000000
Si       2.71476108      -0.00138465      -2.71468557       0.00000000
Si       2.56795560      -0.20325033       2.84748825       0.00000000
Si      -2.71524978      -0.00102627      -2.71509994       0.00000000
Si       0.00026064      -2.71614573      -2.71485822       0.00000000
