10
Lattice="16.28999089631971 0.0 0.0 0.0 16.28999089631971 0.0 0.0 0.0 34.5300574570662" Properties=species:S:1:pos:R:3:initial_magmoms:R:1 pbc="T T T"
Si       1.38637674       1.58244318       1.07619890       0.00000000
Si       1.48975308      -1.17836973      -1.45934463       0.00000000
Si      -1.20702384       1.53973080      -1.46852963       0.00000000
Si      -1.29904605      -1.35177678       1.64228498       0.00000000
Si      -0.51456852       0.64110924       3.12624956       0.00000000
Si      -2.65743657      -2.51791272      -0.03708530       0.00000000
Si       2.81800710       0.27114705       2.44980536       0.00000000
Si      -0.09104481       2.96525241       2.35381174       0.00000000
Si       0.14916753      -2.51116866      -2.84607252       0.00000000
Si       2.64098367      -2.75735943       0.01553853       0.00000000
