10
Lattice="16.28999089631971 0.0 0.0 0.0 16.28999089631971 0.0 0.0 0.0 34.5300574570662" Properties=species:S:1:pos:R:3:initial_magmoms:R:1 pbc="T T T"
Si      -1.35738054      -1.35672894      -1.35761903       0.00000000
Si       1.35783666       1.35826020      -1.35799886       0.00000000
Si      -1.35933534       1.35975888       1.35634141       0.00000000
Si       1.36304946      -1.35760860       1.35727373       0.00000000
Si       2.68672599       0.00747711       2.68661262       0.00000000
Si       2.71283886      -2.71428867      -0.00010359       0.00000000
Si       0.00048870      -2.71432125      -2.71537618       0.00000000
Si      -2.71494027       0.00078192      -2.71513447       0.00000000
Si      -2.71595025      -2.71456560      -0.00058701       0.00000000
Si       0.00060273       2.71538010      -2.71534165       0.00000000
