10
Lattice="16.28999089631971 0.0 0.0 0.0 16.28999089631971 0.0 0.0 0.0 34.5300574570662" Properties=species:S:1:pos:R:3:initial_magmoms:R:1 pbc="T T T"
Si       1.30922730      -1.41270138       1.32975326       0.00000000
Si       1.34537481       1.35366642      -1.35810245       0.00000000
Si      -1.27479024       1.29997458       1.49076700       0.00000000
Si      -1.37301894      -1.35659862      -1.35903476       0.00000000
Si      -0.34298595      -2.42532036       2.67090144       0.00000000
Si      -2.00166633      -0.51844554       3.04600166       0.00000000
Si       2.67304239      -2.70888039      -0.02876355       0.00000000
Si      -2.70995553       2.67770133       0.01035902       0.00000000
Si       2.69547372       2.72085354       0.00514498       0.00000000
Si       2.70124038       0.00040725      -2.71713721       0.00000000
