10
Lattice="16.28999089631971 0.0 0.0 0.0 16.28999089631971 0.0 0.0 0.0 34.5300574570662" Properties=species:S:1:pos:R:3:initial_magmoms:R:1 pbc="T T T"
Si      -0.84222558       1.57275063       1.53945441       0.00000000
Si       2.09634381       0.82898181      -0.71007650       0.00000000
Si       0.32088042      -2.20457457       0.86888032       0.00000000
Si      -1.95638013       0.00700470      -1.42212121       0.00000000
Si      -1.34452773      -2.18300661       2.53243583       0.00000000
Si       3.50666685       0.78714909       1.26939468       0.00000000
Si       2.90445813      -0.71570115      -2.40028923       0.00000000
Si       0.48558861      -3.75393276      -0.92146963       0.00000000
Si      -0.66766194       3.77866098       0.75655398       0.00000000
Si      -3.12337944       1.11026124       2.07584462       0.00000000
