10
Lattice="16.28999089631971 0.0 0.0 0.0 16.28999089631971 0.0 0.0 0.0 34.5300574570662" Properties=species:S:1:pos:R:3:initial_magmoms:R:1 pbc="T T T"
Si      -1.33784883      -1.33721352       1.39038116       0.00000000
Si       1.37686338       1.37363537       1.39103724       0.00000000
Si       1.23903369      -1.58364864      -1.41085405       0.00000000
Si      -1.51933572       1.28154800      -1.46258010       0.00000000
Si       2.38928688      -0.02638980      -2.80790439       0.00000000
Si      -2.67805971       2.72115395       0.03882907       0.00000000
Si      -2.68553682      -2.72186352      -0.00635353       0.00000000
Si       2.73224025      -2.69809641       0.03205082       0.00000000
Si      -2.69736336       0.01644810       2.75266175       0.00000000
Si       0.01718595      -2.70016524       2.75110790       0.00000000
