10
Lattice="16.28999089631971 0.0 0.0 0.0 16.28999089631971 0.0 0.0 0.0 34.5300574570662" Properties=species:S:1:pos:R:3:initial_magmoms:R:1 pbc="T T T"
Si      -1.33217991       0.92767382       1.69055803       0.00000000
Si       2.24889966       0.59464741      -0.29443796       0.00000000
Si      -0.17456364      -2.20591035       0.78290043       0.00000000
Si      -0.96612732       0.26389800      -2.15978724       0.00000000
Si       1.96048521       2.96359802      -0.28069499       0.00000000
Si      -3.46315626       0.79363318       0.78390180       0.00000000
Si       2.76913710      -0.71312733      -2.26676142       0.00000000
Si       0.83937483      -0.12958695      -3.59451193       0.00000000
Si      -2.41204401      -1.58438169      -2.31358420       0.00000000
Si       0.50810139      -2.12999895       3.01012491       0.00000000
