10
Lattice="16.28999089631971 0.0 0.0 0.0 16.28999089631971 0.0 0.0 0.0 34.5300574570662" Properties=species:S:1:pos:R:3:initial_magmoms:R:1 pbc="T T T"
Si       0.38934729       0.33181101      -2.29994482       0.00000000
Si       0.28841445      -2.36895061      -0.01374297       0.00000000
Si       1.46671902       0.96888033       1.63817590       0.00000000
Si      -2.00754702       1.13318127       0.72326699       0.00000000
Si      -1.96048521      -2.96359802       0.28069499       0.00000000
Si      -0.28688319       2.54161467      -2.55242874       0.00000000
Si       2.15669826      -2.56866326       1.36027784       0.00000000
Si       2.09090295      -0.87400900       2.91803320       0.00000000
Si       2.69511534       0.21473478      -2.72894650       0.00000000
Si       0.16451271       3.79552113      -0.58804721       0.00000000
