10
Lattice="16.28999089631971 0.0 0.0 0.0 16.28999089631971 0.0 0.0 0.0 34.5300574570662" Properties=species:S:1:pos:R:3:initial_magmoms:R:1 pbc="T T T"
Si       1.35444345      -1.35338949       1.36096845       0.00000000
Si      -1.36035739       1.36174626       1.35882758       0.00000000
Si       1.35700098       1.36032903      -1.37685573       0.00000000
Si      -1.36483714      -1.34503272      -1.39862349       0.00000000
Si       2.70688812      -2.70806100       0.00379831       0.00000000
Si       2.70716505       2.72132595       0.00120855       0.00000000
Si      -0.00307229      -2.71119194       2.71737892       0.00000000
Si       2.71192173       0.00438201       2.71689550       0.00000000
Si      -2.71866646      -2.71028622      -0.00290053       0.00000000
Si      -2.71842211       0.00420282       2.71689550       0.00000000
