10
Lattice="16.28999089631971 0.0 0.0 0.0 16.28999089631971 0.0 0.0 0.0 34.5300574570662" Properties=species:S:1:pos:R:3:initial_magmoms:R:1 pbc="T T T"
Si       1.34715042       1.34641737      -1.37094764       0.00000000
Si      -1.36940256      -1.36544409      -1.35920741       0.00000000
Si      -1.37999106       1.42788366       1.29411822       0.00000000
Si       1.40905242      -1.35122292       1.37484954       0.00000000
Si      -0.16382853      -2.71713942       2.56506675       0.00000000
Si       2.67729408       2.70985779      -0.00652618       0.00000000
Si      -2.84535801       0.01461213       2.55605440       0.00000000
Si       2.70384678      -0.00816129      -2.72497554       0.00000000
Si      -0.01104462       2.70635544      -2.72463024       0.00000000
Si       2.71609686      -2.72451879      -0.00997919       0.00000000
