10
Lattice="16.28999089631971 0.0 0.0 0.0 16.28999089631971 0.0 0.0 0.0 34.5300574570662" Properties=species:S:1:pos:R:3:initial_magmoms:R:1 pbc="T T T"
Si      -0.66134142      -1.20417309      -1.91023838       0.00000000
Si       2.11572891       1.05674859       0.03083536       0.00000000
Si      -0.08814519      -1.54846224       1.80191753       0.00000000
Si      -1.94360877       1.45701018       0.00611182       0.00000000
Si       2.16125946       1.16077653      -2.44932193       0.00000000
Si      -2.84203485       0.52457058      -1.95885672       0.00000000
Si       0.54902187      -3.42551496       0.54692189       0.00000000
Si      -2.39391324      -1.43138601       2.23091920       0.00000000
Si       1.32809112       3.21707952       0.97916939       0.00000000
Si      -1.29137346      -3.29188483      -0.98345112       0.00000000
