10
Lattice="16.28999089631971 0.0 0.0 0.0 16.28999089631971 0.0 0.0 0.0 34.5300574570662" Properties=species:S:1:pos:R:3:initial_magmoms:R:1 pbc="T T T"
Si      -1.35734796       1.35731538      -1.35748091       0.00000000
Si       1.35754344      -1.35695700      -1.35796433       0.00000000
Si       1.35834165       1.35734796       1.35741185       0.00000000
Si      -1.36021500      -1.35742941       1.35761903       0.00000000
Si      -2.71000440      -0.00074934       2.71499634       0.00000000
Si       2.71653669      -0.00259011       2.71109445       0.00000000
Si       2.71257822      -0.00003258      -2.71516900       0.00000000
Si      -0.00030951       2.71350675      -2.71568695       0.00000000
Si       2.71510317      -2.71448415       0.00017265       0.00000000
Si      -0.00003258      -2.71471221      -2.71489275       0.00000000
