10
Lattice="16.28999089631971 0.0 0.0 0.0 16.28999089631971 0.0 0.0 0.0 34.5300574570662" Properties=species:S:1:pos:R:3:initial_magmoms:R:1 pbc="T T T"
Si      -1.38122910      -1.35426915       1.32975326       0.00000000
Si      -1.35303111       1.35501849      -1.35862040       0.00000000
Si       1.36344042      -1.36125756      -1.35717014       0.00000000
Si       1.36813194       1.36392912       1.37371004       0.00000000
Si      -0.00550602      -2.63972934       2.66157832       0.00000000
Si      -2.70889668       2.70827766       0.00041436       0.00000000
Si       2.61822654      -0.08946468       2.79562407       0.00000000
Si      -2.70490563      -2.71935486       0.00041436       0.00000000
Si      -2.71011843      -0.00348606      -2.71485822       0.00000000
Si       2.71674846       2.70962973      -0.00069060       0.00000000
