10
Lattice="16.28999089631971 0.0 0.0 0.0 16.28999089631971 0.0 0.0 0.0 34.5300574570662" Properties=species:S:1:pos:R:3:initial_magmoms:R:1 pbc="T T T"
Si      -1.47781251      -0.17935290       1.90447185       0.00000000
Si       2.16867141      -1.21026555       0.09312762       0.00000000
Si       0.84165543       1.84026501       1.49653353       0.00000000
Si      -1.61003844      -1.68935445      -1.62360421       0.00000000
Si       2.07819675       0.05846481      -2.68350491       0.00000000
Si       0.27209187      -0.68121522       3.49009298       0.00000000
Si       0.35966691       1.96716411      -2.97120951       0.00000000
Si       1.77258006      -2.14785279       2.30450279       0.00000000
Si      -1.19464344       3.14524062      -1.50157492       0.00000000
Si       2.96613207       2.37776985       0.52026467       0.00000000
