10
Lattice="16.28999089631971 0.0 0.0 0.0 16.28999089631971 0.0 0.0 0.0 34.5300574570662" Properties=species:S:1:pos:R:3:initial_magmoms:R:1 pbc="T T T"
Si       0.75127851       2.11131432      -0.84236122       0.00000000
Si       2.26206198      -0.89423955       0.13943245       0.00000000
Si      -1.71895338      -1.19404071      -1.42384771       0.00000000
Si      -0.10326231       0.59026815       2.48816827       0.00000000
Si       1.64763576      -1.16059734       2.91139586       0.00000000
Si      -1.06209171       3.49909200      -0.02662269       0.00000000
Si       3.48097752       1.03374711       0.92854829       0.00000000
Si      -3.17290104       2.09559447       0.02648457       0.00000000
Si      -0.89384859      -0.98336214      -3.58726061       0.00000000
Si      -3.74272524       0.13598892      -1.40627191       0.00000000
