10
Lattice="16.28999089631971 0.0 0.0 0.0 16.28999089631971 0.0 0.0 0.0 34.5300574570662" Properties=species:S:1:pos:R:3:initial_magmoms:R:1 pbc="T T T"
Si      -1.35332433      -1.35747828       1.36254302       0.00000000
Si       1.36028016       1.35609363       1.35829582       0.00000000
Si       1.24133058      -1.43790201      -1.39107867       0.00000000
Si      -1.49320656       1.11444777      -1.44290486       0.00000000
Si      -0.41687739      -2.59734276      -2.63885960       0.00000000
Si      -2.73224025       2.69809641      -0.03205082       0.00000000
Si      -2.71505430      -0.00206883       2.71905708       0.00000000
Si       0.00079821       2.71321353       2.72130154       0.00000000
Si       0.00135207      -2.71691136       2.71974768       0.00000000
Si       2.71679733      -0.00115659       2.72206120       0.00000000
