10
Lattice="16.28999089631971 0.0 0.0 0.0 16.28999089631971 0.0 0.0 0.0 34.5300574570662" Properties=species:S:1:pos:R:3:initial_magmoms:R:1 pbc="T T T"
Si      -1.34537481      -1.35366642       1.35810245       0.00000000
Si       1.35586557      -1.35325917      -1.35903476       0.00000000
Si      -1.35874890       1.36107837      -1.35703202       0.00000000
Si       1.35009891       1.36718712       1.36324743       0.00000000
Si      -0.05652630       2.63979450       2.76409811       0.00000000
Si       2.70889668      -2.70827766      -0.00041436       0.00000000
Si      -0.00122175      -2.71176372      -2.71527259       0.00000000
Si      -2.71839375      -2.71026504      -0.00093231       0.00000000
Si       2.71371852       0.00319284      -2.71551430       0.00000000
Si      -2.71603170       0.00281817      -2.71489275       0.00000000
