10
Lattice="16.28999089631971 0.0 0.0 0.0 16.28999089631971 0.0 0.0 0.0 34.5300574570662" Properties=species:S:1:pos:R:3:initial_magmoms:R:1 pbc="T T T"
Si       0.99828378      -2.05065036       0.27731105       0.00000000
Si       1.35091341       1.84120398      -0.57426971       0.00000000
Si      -0.76113396       1.02405456       2.05906301       0.00000000
Si      -1.73141523      -0.97308315      -1.49359847       0.00000000
Si      -2.49204420       2.22188988       0.93531619       0.00000000
Si      -0.19365552       3.10520699      -1.80443822       0.00000000
Si      -3.54478545       0.41469453      -0.67785994       0.00000000
Si       2.39181183      -1.84622715       2.25591142       0.00000000
Si       3.32801442      -1.86007365      -0.04654654       0.00000000
Si      -1.91138715      -0.53320428       3.45611335       0.00000000
