10
Lattice="16.28999089631971 0.0 0.0 0.0 16.28999089631971 0.0 0.0 0.0 34.5300574570662" Properties=species:S:1:pos:R:3:initial_magmoms:R:1 pbc="T T T"
Si      -0.08035857      -0.43083792       2.35581449       0.00000000
Si       2.29328081       0.70377687      -0.40786927       0.00000000
Si      -0.82446948      -2.14619936      -0.84722996       0.00000000
Si      -1.54820160       1.77319908      -0.83894274       0.00000000
Si       2.57442992       1.69819992       1.83972796       0.00000000
Si      -2.34548307      -0.83890242       2.84914569       0.00000000
Si      -3.66393051       0.71645049      -0.86977810       0.00000000
Si       0.78077548       1.50578244       3.44181993       0.00000000
Si      -3.75207570      -0.83201175       0.93213942       0.00000000
Si       2.37223844       2.65132782      -1.90754503       0.00000000
