10
Lattice="16.28999089631971 0.0 0.0 0.0 16.28999089631971 0.0 0.0 0.0 34.5300574570662" Properties=species:S:1:pos:R:3:initial_magmoms:R:1 pbc="T T T"
Si      -1.74742083       0.61025598      -1.60333505       0.00000000
Si      -2.22072678      -0.92067822       0.67064315       0.00000000
Si       1.65418271      -0.14657742       2.08219816       0.00000000
Si       1.12138242      -2.04876072      -1.41518067       0.00000000
Si      -1.06791606       2.50980030       0.55859305       0.00000000
Si       3.48209990      -0.09150093       0.57737741       0.00000000
Si      -0.41154309       1.94601969      -3.07797651       0.00000000
Si      -3.86458326       0.68069394      -0.18383813       0.00000000
Si       2.45216465      -0.83323350      -3.03243134       0.00000000
Si      -2.26625733      -1.02470616       3.15080044       0.00000000
