10
Lattice="16.28999089631971 0.0 0.0 0.0 16.28999089631971 0.0 0.0 0.0 34.5300574570662" Properties=species:S:1:pos:R:3:initial_magmoms:R:1 pbc="T T T"
Si      -0.55454418       1.50200316       1.69887978       0.00000000
Si       2.26512450       0.40806450      -0.49333121       0.00000000
Si      -0.02876814      -2.14936124       0.95983254       0.00000000
Si      -1.40659263       0.00689067      -1.91700627       0.00000000
Si      -2.63498895       0.76103622       2.45011613       0.00000000
Si      -0.76942557      -1.87016205      -3.17200191       0.00000000
Si       2.34548307       0.83890242      -2.84914569       0.00000000
Si       3.66222399      -1.38241990       0.26284294       0.00000000
Si       0.79733034       0.98471421       3.73681038       0.00000000
Si       3.12625855       2.34468486       0.59267424       0.00000000
