10
Lattice="16.28999089631971 0.0 0.0 0.0 16.28999089631971 0.0 0.0 0.0 34.5300574570662" Properties=species:S:1:pos:R:3:initial_magmoms:R:1 pbc="T T T"
Si       1.97682408      -0.55693881       1.13555610       0.00000000
Si      -1.48041891      -1.35330804       1.23438118       0.00000000
Si       0.20686671       1.92718845       1.37868237       0.00000000
Si       0.10318086      -0.14151123      -2.40698806       0.00000000
Si       1.50578244       0.40452957       3.37441722       0.00000000
Si       1.10905578       1.90654902      -3.11406044       0.00000000
Si      -2.14729893       0.21830229      -3.26102045       0.00000000
Si       1.25387388       3.73352139       0.31263531       0.00000000
Si      -2.13519546      -0.49011723       3.30874101       0.00000000
Si      -0.46100700      -3.41194050       2.03164613       0.00000000
