10
Lattice="16.28999089631971 0.0 0.0 0.0 16.28999089631971 0.0 0.0 0.0 34.5300574570662" Properties=species:S:1:pos:R:3:initial_magmoms:R:1 pbc="T T T"
Si       0.68841540      -1.45795500      -1.69753310       0.00000000
Si      -0.49337523       2.09710944      -0.94878292       0.00000000
Si      -1.99114299      -0.66065724       1.14132263       0.00000000
Si       1.44357093       0.16558785       1.90022465       0.00000000
Si      -1.07917992       3.21108480       1.11414746       0.00000000
Si      -0.29716218      -0.36694854       3.66567842       0.00000000
Si       0.11557755      -3.64033770      -0.95047489       0.00000000
Si       3.01611861      -1.81374489      -1.53058018       0.00000000
Si      -0.66345912      -0.94066605      -3.73546370       0.00000000
Si      -2.33764758       1.98115722      -2.45836881       0.00000000
