10
Lattice="16.28999089631971 0.0 0.0 0.0 16.28999089631971 0.0 0.0 0.0 34.5300574570662" Properties=species:S:1:pos:R:3:initial_magmoms:R:1 pbc="T T T"
Si      -2.29353426       0.51683283      -0.27693122       0.00000000
Si       0.32713578      -1.96876053       1.42219027       0.00000000
Si       1.74073311       0.53253639      -1.76545376       0.00000000
Si       1.44923985       2.33554617       0.08843153       0.00000000
Si      -1.69398081      -0.29370870      -2.52435579       0.00000000
Si       1.63613502      -0.53936190       2.99251945       0.00000000
Si       2.88859167       1.01569779       1.64901835       0.00000000
Si       0.29716218       0.36694854      -3.66567842       0.00000000
Si      -3.09560499       1.18956096       1.95196042       0.00000000
Si      -2.54081646       2.89849599      -1.03583324       0.00000000
