10
Lattice="16.28999089631971 0.0 0.0 0.0 16.28999089631971 0.0 0.0 0.0 34.5300574570662" Properties=species:S:1:pos:R:3:initial_magmoms:R:1 pbc="T T T"
Si       1.20141257      -1.37834577       1.54248961       0.00000000
Si      -1.65462417      -1.19819466      -1.28267292       0.00000000
Si       1.68163203       1.06391619      -1.49423870       0.00000000
Si      -1.50884496       1.32760242       1.53965814       0.00000000
Si       2.49414465       2.65057848       0.10729531       0.00000000
Si       2.62079451      -2.70063765       0.11493681       0.00000000
Si      -0.30553524      -2.51041932      -2.90320395       0.00000000
Si       2.55039076      -0.02401146       2.92348550       0.00000000
Si       0.56242854       1.74948084      -3.47768084       0.00000000
Si      -2.99692017       2.61316035       0.17428366       0.00000000
