10
Lattice="16.28999089631971 0.0 0.0 0.0 16.28999089631971 0.0 0.0 0.0 34.5300574570662" Properties=species:S:1:pos:R:3:initial_magmoms:R:1 pbc="T T T"
Si       0.91385271      -0.33019830       2.10947692       0.00000000
Si      -2.07677952       1.06047900       0.46197790       0.00000000
Si       1.78160050       1.01871144      -1.20879440       0.00000000
Si      -0.40369878      -2.19396978      -0.86511654       0.00000000
Si      -1.70261451      -0.67131090      -2.86085139       0.00000000
Si       1.70876140      -3.06851472      -0.06184337       0.00000000
Si      -3.27246552       0.44564553      -1.52602221       0.00000000
Si      -2.20040433      -2.97266436       0.57879315       0.00000000
Si       3.80044790      -0.01415601      -0.46646681       0.00000000
Si       2.26347662      -2.25561114       2.11068547       0.00000000
