10
Lattice="16.28999089631971 0.0 0.0 0.0 16.28999089631971 0.0 0.0 0.0 34.5300574570662" Properties=species:S:1:pos:R:3:initial_magmoms:R:1 pbc="T T T"
Si      -1.82791719      -0.05507649       1.50482074       0.00000000
Si       2.06421993      -0.16270452       1.18338026       0.00000000
Si       0.10490760       0.82241694      -2.28772118       0.00000000
Si       0.53315541       2.69402391       1.90523151       0.00000000
Si      -3.48209990       0.09150093      -0.57737741       0.00000000
Si      -2.36071748      -1.95725979      -1.99255808       0.00000000
Si      -1.54341234       1.97607474       2.76192272       0.00000000
Si       3.69737388      -0.27870561      -0.48794451       0.00000000
Si      -1.02993525      -0.74173257      -3.60980875       0.00000000
Si       2.07485730      -2.02408137       2.61002491       0.00000000
