10
Lattice="16.28999089631971 0.0 0.0 0.0 16.28999089631971 0.0 0.0 0.0 34.5300574570662" Properties=species:S:1:pos:R:3:initial_magmoms:R:1 pbc="T T T"
Si      -1.35829278      -1.35589815       1.35758450       0.00000000
Si       1.35712220       1.35794322       1.35758450       0.00000000
Si       1.35961620      -1.35751086      -1.35944912       0.00000000
Si      -1.35847197       1.35884894      -1.36269495       0.00000000
Si       2.71390490      -2.71331127      -0.00006906       0.00000000
Si       2.71414925       0.00148239       2.71482369       0.00000000
Si      -0.00024171      -2.71412577       2.71496181       0.00000000
Si      -2.71505430      -2.71487511       0.00217539       0.00000000
Si       2.71463795       2.71574567       0.00117402       0.00000000
Si      -2.71575477       0.00121161       2.71572148       0.00000000
