10
Lattice="16.28999089631971 0.0 0.0 0.0 16.28999089631971 0.0 0.0 0.0 34.5300574570662" Properties=species:S:1:pos:R:3:initial_magmoms:R:1 pbc="T T T"
Si       1.35373158      -1.35252612      -1.36138281       0.00000000
Si      -1.35839052      -1.35661491       1.35540910       0.00000000
Si       1.35676152       1.35897696       1.35540910       0.00000000
Si      -1.35651717       1.35725022      -1.36376538       0.00000000
Si      -0.00030951      -2.71389771       2.71278642       0.00000000
Si       2.71473618      -2.71205694      -0.00186462       0.00000000
Si       2.71481259       0.00074934       2.71278642       0.00000000
Si      -2.71541268       0.00081450       2.71285548       0.00000000
Si      -0.00070047       2.71608672       2.71354608       0.00000000
Si       2.71505430       2.71487511      -0.00217539       0.00000000
