10
Lattice="16.28999089631971 0.0 0.0 0.0 16.28999089631971 0.0 0.0 0.0 34.5300574570662" Properties=species:S:1:pos:R:3:initial_magmoms:R:1 pbc="T T T"
Si      -1.70707471      -1.14992739       1.29205129       0.00000000
Si       1.12734945       1.63429425       1.43377653       0.00000000
Si      -0.29159100       2.10458655      -1.29418728       0.00000000
Si       1.84909419      -1.64885751      -0.36695113       0.00000000
Si       2.38498632       2.37208464      -0.39709588       0.00000000
Si       2.31713847       0.16443126       2.76227289       0.00000000
Si      -2.64623719       2.61462645      -0.31712422       0.00000000
Si      -0.41707287      -2.54503557       2.72571245       0.00000000
Si       3.50686233       0.40342185      -1.40292249       0.00000000
Si      -3.19405265      -2.27955744      -0.16550266       0.00000000
