10
Lattice="16.28999089631971 0.0 0.0 0.0 16.28999089631971 0.0 0.0 0.0 34.5300574570662" Properties=species:S:1:pos:R:3:initial_magmoms:R:1 pbc="T T T"
Si       1.34897819       1.35433431       1.38099589       0.00000000
Si      -1.36810814      -1.35739683       1.37989093       0.00000000
Si      -1.20141257       1.37834577      -1.54248961       0.00000000
Si       1.41938194      -1.32229188      -1.42755279       0.00000000
Si      -0.06759599      -2.45192193      -2.88510674       0.00000000
Si      -2.71025753       2.70594819      -0.00283147       0.00000000
Si       2.70938378      -2.71740006       0.00610837       0.00000000
Si       2.71146890       2.72829807       0.00569401       0.00000000
Si      -2.72356646      -2.72026710      -0.00521059       0.00000000
Si       2.70876476       0.00053757       2.74282759       0.00000000
