10
Lattice="16.28999089631971 0.0 0.0 0.0 16.28999089631971 0.0 0.0 0.0 34.5300574570662" Properties=species:S:1:pos:R:3:initial_magmoms:R:1 pbc="T T T"
Si       1.35726602       1.35606105       1.35761903       0.00000000
Si      -1.35813756      -1.35969372       1.35689390       0.00000000
Si      -1.36100460       1.35953082      -1.35951818       0.00000000
Si       1.35710801      -1.36186029      -1.36207341       0.00000000
Si      -2.71473618       2.71205694       0.00186462       0.00000000
Si       0.00007642       2.71280628       2.71465104       0.00000000
Si       2.71422302       2.71362078      -0.00037983       0.00000000
Si      -2.71504569      -0.00184077       2.71465104       0.00000000
Si       2.71476059      -0.00198738       2.71551430       0.00000000
Si      -0.00797349       2.70207117      -2.72834913       0.00000000
