10
Lattice="16.28999089631971 0.0 0.0 0.0 16.28999089631971 0.0 0.0 0.0 34.5300574570662" Properties=species:S:1:pos:R:3:initial_magmoms:R:1 pbc="T T T"
Si       1.35430499      -1.35151614       1.36041596       0.00000000
Si      -1.35710754      -1.35547461      -1.35661766       0.00000000
Si       1.35749783       1.36000323      -1.35627235       0.00000000
Si      -1.35629304       1.35822762       1.36348914       0.00000000
Si       2.68713650       0.01912446       2.71447839       0.00000000
Si      -2.71390164      -2.71238274       0.00051795       0.00000000
Si       2.71385210      -2.71292031       0.00058701       0.00000000
Si       0.00012706      -2.71238274      -2.71482369       0.00000000
Si       2.71486208       0.00242721      -2.71396044       0.00000000
Si      -2.71540032       0.00229689      -2.71489275       0.00000000
