10
Lattice="16.28999089631971 0.0 0.0 0.0 16.28999089631971 0.0 0.0 0.0 34.5300574570662" Properties=species:S:1:pos:R:3:initial_magmoms:R:1 pbc="T T T"
Si       0.14499729       1.00427850      -2.14183160       0.00000000
Si      -2.32045186       0.63410454       0.31014915       0.00000000
Si       2.15941869       1.82288358      -0.62637559       0.00000000
Si      -0.73430433       2.50822017       1.37284679       0.00000000
Si       1.25107200      -2.90649438      -0.85710557       0.00000000
Si       1.63492956       2.59944417       1.61272723       0.00000000
Si      -3.40385156      -1.12761009       1.41183125       0.00000000
Si       1.67931981      -1.03488741       3.33584712       0.00000000
Si      -2.74747859      -1.69139070      -2.22473832       0.00000000
Si       3.81809907      -0.08399124      -1.00147582       0.00000000
