10
Lattice="16.28999089631971 0.0 0.0 0.0 16.28999089631971 0.0 0.0 0.0 34.5300574570662" Properties=species:S:1:pos:R:3:initial_magmoms:R:1 pbc="T T T"
Si      -0.40657071       2.29785111      -0.01812829       0.00000000
Si       1.49863276      -0.82375272      -1.61597306       0.00000000
Si      -1.90536541      -1.32367653       0.41494793       0.00000000
Si       1.26448030      -0.17151741       2.01455374       0.00000000
Si      -0.66239375      -3.33599652       0.20483242       0.00000000
Si      -2.37640705      -0.36220815       2.65380905       0.00000000
Si       3.55490317      -0.18086787      -0.65883386       0.00000000
Si       1.13126068      -3.14357904      -1.39725956       0.00000000
Si      -0.19110776       2.85047307       2.31013120       0.00000000
Si      -0.26394687      -1.23675309       3.45708222       0.00000000
