10
Lattice="16.28999089631971 0.0 0.0 0.0 16.28999089631971 0.0 0.0 0.0 34.5300574570662" Properties=species:S:1:pos:R:3:initial_magmoms:R:1 pbc="T T T"
Si       2.16931975      -0.92983320       0.26988708       0.00000000
Si      -0.16098592       2.32935597      -0.52223288       0.00000000
Si      -1.13159529      -1.88603991      -0.95603424       0.00000000
Si      -1.73243565      -0.39711762       1.64169797       0.00000000
Si       1.74141403      -1.59272217       2.64807706       0.00000000
Si      -2.78691993       1.69204230       1.73917638       0.00000000
Si       2.25164941      -2.63875194      -1.41366134       0.00000000
Si      -2.86605675      -2.36134953       0.59692144       0.00000000
Si      -2.52181647       2.77061949      -0.48317936       0.00000000
Si      -0.61323216      -1.08268227       3.62514011       0.00000000
