10
Lattice="16.28999089631971 0.0 0.0 0.0 16.28999089631971 0.0 0.0 0.0 34.5300574570662" Properties=species:S:1:pos:R:3:initial_magmoms:R:1 pbc="T T T"
Si      -1.88470250      -0.17042598      -1.35723920       0.00000000
Si      -0.27433989      -0.50859009       2.28043533       0.00000000
Si       1.07595450       2.08350729      -0.36743455       0.00000000
Si       1.76119335      -1.07233812      -1.19187466       0.00000000
Si       2.38073463       1.91054007       1.68064790       0.00000000
Si      -0.76984911       0.15881121      -3.41768341       0.00000000
Si       1.59938478       0.25003521      -3.17780296       0.00000000
Si      -2.21343144      -2.57476482      -1.40889619       0.00000000
Si       1.79782956      -1.69049475       2.80508532       0.00000000
Si      -0.97262703       1.55865978       3.33985261       0.00000000
