10
Lattice="16.28999089631971 0.0 0.0 0.0 16.28999089631971 0.0 0.0 0.0 34.5300574570662" Properties=species:S:1:pos:R:3:initial_magmoms:R:1 pbc="T T T"
Si       2.18641122       0.64311291       0.38476865       0.00000000
Si      -0.71470583      -0.32904171       2.26047694       0.00000000
Si       0.69828714      -2.06724987      -1.05941728       0.00000000
Si      -1.43846890       1.60839315      -1.11981039       0.00000000
Si      -1.08031045      -3.20375430      -0.06854220       0.00000000
Si      -0.86484750      -2.65113234       2.25971728       0.00000000
Si       3.35336166       0.35188029      -1.65920472       0.00000000
Si       0.97262703      -1.55865978      -3.33985261       0.00000000
Si      -0.80016806       3.72528421      -0.17541279       0.00000000
Si      -2.94903476       0.33506901       2.44434960       0.00000000
