10
Lattice="10.86 0.0 0.0 0.0 10.86 0.0 0.0 0.0 10.86" Properties=species:S:1:pos:R:3:initial_magmoms:R:1 pbc="T T T"
Si      -1.32001128       1.37306238      -1.38013224       0.00000000
Si       1.39498872       1.37306238       1.33486776       0.00000000
Si       1.39498872      -1.34193762      -1.38013224       0.00000000
Si      -2.65430346      -2.67492660      -0.07218642       0.00000000
Si      -0.03385062      -2.69401848       2.65838682       0.00000000
Si      -2.67751128       0.01556238      -2.73763224       0.00000000
Si       0.10224690       2.69512620       2.72179836       0.00000000
Si       0.03748872      -2.69943762      -2.73763224       0.00000000
Si       2.75248872       0.01556238       2.69236776       0.00000000
Si       2.75248872      -2.69943762      -0.02263224       0.00000000
