10
Lattice="10.86 0.0 0.0 0.0 10.86 0.0 0.0 0.0 10.86" Properties=species:S:1:pos:R:3:initial_magmoms:R:1 pbc="T T T"
Si       1.32061944       1.32298692       1.37810142       0.00000000
Si      -1.39438056       1.32298692      -1.33689858       0.00000000
Si      -1.39438056      -1.39201308       1.37810142       0.00000000
Si       2.39243628      -0.02452188      -2.63315904       0.00000000
Si       0.06080514      -2.66089548      -2.61726000       0.00000000
Si       2.63083500       2.65549806      -0.01684386       0.00000000
Si       2.67811944      -0.03451308       2.73560142       0.00000000
Si      -0.03688056       2.68048692       2.73560142       0.00000000
Si      -0.09436254       2.65519398      -2.76392430       0.00000000
Si      -2.75188056       2.68048692       0.02060142       0.00000000
