10
Lattice="10.86 0.0 0.0 0.0 10.86 0.0 0.0 0.0 10.86" Properties=species:S:1:pos:R:3:initial_magmoms:R:1 pbc="T T T"
Si      -1.31021556       1.38248886      -1.32005472       0.00000000
Si      -1.31021556      -1.33251114       1.39494528       0.00000000
Si       1.40478444       1.38248886       1.39494528       0.00000000
Si      -2.63083500      -2.65549806       0.01684386       0.00000000
Si      -0.23839872      -2.68001994      -2.61631518       0.00000000
Si      -2.66771556       2.73998886       0.03744528       0.00000000
Si       0.04728444       2.73998886      -2.67755472       0.00000000
Si      -2.66771556       0.02498886       2.75244528       0.00000000
Si       0.04728444      -2.69001114       2.75244528       0.00000000
Si      -2.72519754      -0.00030408      -2.74708044       0.00000000
