10
Lattice="10.86 0.0 0.0 0.0 10.86 0.0 0.0 0.0 10.86" Properties=species:S:1:pos:R:3:initial_magmoms:R:1 pbc="T T T"
Si      -1.38070782       1.33298898      -1.30794582       0.00000000
Si       1.33429218      -1.38201102      -1.30794582       0.00000000
Si      -1.38070782      -1.38201102       1.40705418       0.00000000
Si       2.65430346       2.67492660       0.07218642       0.00000000
Si      -2.71008042       2.62435158       0.03381804       0.00000000
Si       2.62045284      -0.01909188       2.73057324       0.00000000
Si      -0.02320782       2.69048898      -2.66544582       0.00000000
Si       2.69179218      -0.02451102      -2.66544582       0.00000000
Si      -2.73820782      -0.02451102      -2.66544582       0.00000000
Si      -0.02320782      -2.73951102      -2.66544582       0.00000000
