10
Lattice="10.86 0.0 0.0 0.0 10.86 0.0 0.0 0.0 10.86" Properties=species:S:1:pos:R:3:initial_magmoms:R:1 pbc="T T T"
Si      -1.50504396      -1.18140510      -1.41553584       0.00000000
Si      -1.24289442       1.50222036       1.37658102       0.00000000
Si       1.42181292      -1.35369900       1.38891798       0.00000000
Si       1.38055578       1.41762096      -1.46700138       0.00000000
Si      -2.72549076      -2.50856226      -0.04020372       0.00000000
Si      -0.01049076      -2.50856226      -2.75520372       0.00000000
Si       0.04677402      -2.55480414       2.76865926       0.00000000
Si      -2.72549076       0.20643774       2.67479628       0.00000000
Si       2.70450924       0.20643774      -2.75520372       0.00000000
Si      -2.72549076       0.20643774      -2.75520372       0.00000000
