10
Lattice="10.86 0.0 0.0 0.0 10.86 0.0 0.0 0.0 10.86" Properties=species:S:1:pos:R:3:initial_magmoms:R:1 pbc="T T T"
Si       1.28199042       1.34405532       1.29933384       0.00000000
Si      -1.43300958      -1.37094468       1.29933384       0.00000000
Si      -1.43300958       1.34405532      -1.41566616       0.00000000
Si       2.63949042      -0.01344468       2.65683384       0.00000000
Si       2.63949042       2.70155532      -0.05816616       0.00000000
Si      -0.07550958       2.70155532       2.65683384       0.00000000
Si       2.57850066       0.04499298      -2.79528798       0.00000000
Si      -2.66541324      -0.07516206      -2.71388142       0.00000000
Si      -0.07550958      -2.72844468       2.65683384       0.00000000
Si      -2.79050958      -0.01344468       2.65683384       0.00000000
