10
Lattice="10.86 0.0 0.0 0.0 10.86 0.0 0.0 0.0 10.86" Properties=species:S:1:pos:R:3:initial_magmoms:R:1 pbc="T T T"
Si       1.19364432      -1.52397294       1.45954056       0.00000000
Si       1.44220800       0.30192972      -2.07127350       0.00000000
Si      -1.72935726       1.39579236       1.60427178       0.00000000
Si      -0.16484394       2.23490112      -2.54958048       0.00000000
Si       2.31117090      -2.81194722       0.10592844       0.00000000
Si       2.31117090      -0.09694722       2.82092844       0.00000000
Si      -0.40382910      -2.81194722      -2.60907156       0.00000000
Si      -0.40382910       2.61805278       2.82092844       0.00000000
Si      -0.40382910      -2.81194722       2.82092844       0.00000000
Si      -3.11882910      -0.09694722      -2.60907156       0.00000000
