10
Lattice="10.86 0.0 0.0 0.0 10.86 0.0 0.0 0.0 10.86" Properties=species:S:1:pos:R:3:initial_magmoms:R:1 pbc="T T T"
Si      -0.90750504       1.52313672      -1.62871764       0.00000000
Si      -1.77646794      -0.79298634       1.62408042       0.00000000
Si       1.80749496       1.52313672       1.08628236       0.00000000
Si       1.80749496      -1.19186328      -1.62871764       0.00000000
Si      -2.17963458      -2.21125890      -0.08870448       0.00000000
Si      -3.38351988       1.13998506       1.14577344       0.00000000
Si      -2.26500504       0.16563672      -2.98621764       0.00000000
Si       0.50485968       2.73080130       2.56688046       0.00000000
Si      -2.44107822       3.04219008      -0.04099650       0.00000000
Si       0.44999496      -2.54936328      -2.98621764       0.00000000
