10
Lattice="10.86 0.0 0.0 0.0 10.86 0.0 0.0 0.0 10.86" Properties=species:S:1:pos:R:3:initial_magmoms:R:1 pbc="T T T"
Si      -1.37079264      -1.14827124       1.24829184       0.00000000
Si       1.34420736      -1.14827124      -1.46670816       0.00000000
Si       1.34420736       1.56672876       1.24829184       0.00000000
Si      -0.01329264      -2.50577124       2.60579184       0.00000000
Si       2.70170736      -2.50577124      -0.10920816       0.00000000
Si      -2.72829264      -2.50577124      -0.10920816       0.00000000
Si      -2.86900566       2.34794286      -0.40326438       0.00000000
Si       2.70170736       0.20922876       2.60579184       0.00000000
Si      -0.01329264      -2.50577124      -2.82420816       0.00000000
Si      -2.68834956       0.22061004       2.64981828       0.00000000
