10
Lattice="10.86 0.0 0.0 0.0 10.86 0.0 0.0 0.0 10.86" Properties=species:S:1:pos:R:3:initial_magmoms:R:1 pbc="T T T"
Si      -1.23800742       1.28357598      -1.41698022       0.00000000
Si      -1.23800742      -1.43142402       1.29801978       0.00000000
Si       1.47699258       1.28357598       1.29801978       0.00000000
Si      -2.59550742       2.64107598      -0.05948022       0.00000000
Si      -2.59550742      -0.07392402       2.65551978       0.00000000
Si       0.11949258       2.64107598       2.65551978       0.00000000
Si      -2.58496236      -2.72999766      -0.04330968       0.00000000
Si       0.11949258       2.64107598      -2.77448022       0.00000000
Si      -2.63856732      -0.07884360      -2.80362846       0.00000000
Si       0.11949258      -2.78892402       2.65551978       0.00000000
