10
Lattice="10.86 0.0 0.0 0.0 10.86 0.0 0.0 0.0 10.86" Properties=species:S:1:pos:R:3:initial_magmoms:R:1 pbc="T T T"
Si       1.35750000       1.35750000       1.35750000       0.00000000
Si      -1.35750000      -1.35750000       1.35750000       0.00000000
Si      -1.35750000       1.35750000      -1.35750000       0.00000000
Si       1.35750000      -1.35750000      -1.35750000       0.00000000
Si      -0.11949258      -2.64107598      -2.65551978       0.00000000
Si       0.00774318       2.64313938       2.68656852       0.00000000
Si       0.03994308       2.72638128      -2.67097356       0.00000000
Si       0.02898534      -2.78171298       2.64591954       0.00000000
Si      -2.71500000       0.00000000       2.71500000       0.00000000
Si      -2.71500000       2.71500000       0.00000000       0.00000000
