10
Lattice="10.86 0.0 0.0 0.0 10.86 0.0 0.0 0.0 10.86" Properties=species:S:1:pos:R:3:initial_magmoms:R:1 pbc="T T T"
Si       1.31435322      -1.20476496      -1.26183426       0.00000000
Si      -1.40064678       1.51023504      -1.26183426       0.00000000
Si       1.31435322       1.51023504       1.45316574       0.00000000
Si      -1.33427046      -1.46146278       1.55258904       0.00000000
Si      -0.04314678      -2.56226496      -2.61933426       0.00000000
Si       2.67185322       0.15273504      -2.61933426       0.00000000
Si       2.58405012       0.26926284       2.70008922       0.00000000
Si      -2.75814678       0.15273504      -2.61933426       0.00000000
Si       2.68806720      -2.77025568       0.28889772       0.00000000
Si      -0.04314678       2.86773504      -2.61933426       0.00000000
