10
Lattice="10.86 0.0 0.0 0.0 10.86 0.0 0.0 0.0 10.86" Properties=species:S:1:pos:R:3:initial_magmoms:R:1 pbc="T T T"
Si      -1.35750000       1.35750000      -1.35750000       0.00000000
Si       1.35750000      -1.35750000      -1.35750000       0.00000000
Si      -1.35750000      -1.35750000       1.35750000       0.00000000
Si       1.35750000       1.35750000       1.35750000       0.00000000
Si       0.00030408      -2.60237094      -2.54106624       0.00000000
Si       2.56261248      -2.73319050      -0.12116502       0.00000000
Si      -0.10783980       2.82276378      -2.48934006       0.00000000
Si      -2.71500000      -2.71500000       0.00000000       0.00000000
Si       0.00000000      -2.71500000       2.71500000       0.00000000
Si      -2.71500000       2.71500000       0.00000000       0.00000000
