10
Lattice="10.86 0.0 0.0 0.0 10.86 0.0 0.0 0.0 10.86" Properties=species:S:1:pos:R:3:initial_magmoms:R:1 pbc="T T T"
Si       1.19302530      -1.30940106      -1.43484492       0.00000000
Si      -1.52197470      -1.30940106       1.28015508       0.00000000
Si      -1.52197470       1.40559894      -1.43484492       0.00000000
Si       1.40013636       1.58558172       1.56558846       0.00000000
Si       2.47227900      -2.44314162       0.06930852       0.00000000
Si       2.52173544       2.79034668      -0.16324752       0.00000000
Si       2.55052530       0.04809894      -2.79234492       0.00000000
Si      -0.27231450      -2.55913728       2.86331502       0.00000000
Si      -0.16447470      -2.66690106      -2.79234492       0.00000000
Si      -2.87947470       0.04809894       2.63765508       0.00000000
