10
Lattice="10.86 0.0 0.0 0.0 10.86 0.0 0.0 0.0 10.86" Properties=species:S:1:pos:R:3:initial_magmoms:R:1 pbc="T T T"
Si       1.26963174       1.51889046       1.16211774       0.00000000
Si       1.26963174      -1.19610954      -1.55288226       0.00000000
Si      -1.01437830      -1.88952054       1.40686956       0.00000000
Si      -1.44536826       1.51889046      -1.55288226       0.00000000
Si      -2.41860888      -0.08900856       2.50393590       0.00000000
Si       2.61951888      -0.10638456       2.48669022       0.00000000
Si       2.51634888      -2.71426152      -0.05726478       0.00000000
Si      -2.66601054      -2.65538946      -0.30565470       0.00000000
Si      -0.08786826       2.87639046       2.51961774       0.00000000
Si      -0.08786826      -2.55360954      -2.91038226       0.00000000
