10
Lattice="10.86 0.0 0.0 0.0 10.86 0.0 0.0 0.0 10.86" Properties=species:S:1:pos:R:3:initial_magmoms:R:1 pbc="T T T"
Si      -1.14893370      -1.24391526       1.29791118       0.00000000
Si      -1.14893370       1.47108474      -1.41708882       0.00000000
Si       1.56606630       1.47108474       1.29791118       0.00000000
Si      -2.12217432      -0.13681428      -2.79027066       0.00000000
Si      -2.50643370       0.11358474       2.65541118       0.00000000
Si      -2.54577948      -2.67584970      -0.24404592       0.00000000
Si       0.20856630      -2.60141526       2.65541118       0.00000000
Si      -2.50643370       2.82858474      -0.05958882       0.00000000
Si      -0.90566970      -3.26134488      -1.86479232       0.00000000
Si       0.20856630       2.82858474       2.65541118       0.00000000
