10
Lattice="10.86 0.0 0.0 0.0 10.86 0.0 0.0 0.0 10.86" Properties=species:S:1:pos:R:3:initial_magmoms:R:1 pbc="T T T"
Si      -1.22064228       1.25572008       1.24722756       0.00000000
Si       1.22081604      -1.18274088       1.43527932       0.00000000
Si       1.35750000       1.35750000      -1.35750000       0.00000000
Si      -1.35750000      -1.35750000      -1.35750000       0.00000000
Si       0.43098996       2.02158900       2.95975182       0.00000000
Si       2.71500000       2.71500000       0.00000000       0.00000000
Si       2.71500000       0.00000000      -2.71500000       0.00000000
Si       0.00000000      -2.71500000      -2.71500000       0.00000000
Si      -2.71500000       0.00000000      -2.71500000       0.00000000
Si       0.00000000      -2.71500000       2.71500000       0.00000000
