10
Lattice="10.86 0.0 0.0 0.0 10.86 0.0 0.0 0.0 10.86" Properties=species:S:1:pos:R:3:initial_magmoms:R:1 pbc="T T T"
Si       1.41381996       1.22883072      -1.28744214       0.00000000
Si      -1.30118004       1.22883072       1.42755786       0.00000000
Si      -1.30118004      -1.48616928      -1.28744214       0.00000000
Si       0.05631996       2.58633072      -2.64494214       0.00000000
Si      -2.65868004       2.58633072       0.07005786       0.00000000
Si      -2.65868004      -0.12866928      -2.64494214       0.00000000
Si       2.77131996       2.58633072       0.07005786       0.00000000
Si       0.05631996       2.58633072       2.78505786       0.00000000
Si       2.77131996      -0.12866928      -2.64494214       0.00000000
Si      -2.65868004      -0.12866928       2.78505786       0.00000000
