10
Lattice="10.86 0.0 0.0 0.0 10.86 0.0 0.0 0.0 10.86" Properties=species:S:1:pos:R:3:initial_magmoms:R:1 pbc="T T T"
Si       1.28776794       1.43403042       0.97691130       0.00000000
Si      -1.43196702      -1.48729872       1.01930874       0.00000000
Si      -1.43196702       1.22770128      -1.69569126       0.00000000
Si       1.28303298      -1.48729872      -1.69569126       0.00000000
Si       2.71229586      -0.04368978       2.38405236       0.00000000
Si      -0.07446702      -2.84479872       2.37680874       0.00000000
Si      -1.95079266      -0.34410996       3.28683330       0.00000000
Si       2.64053298      -2.84479872      -0.33819126       0.00000000
Si       2.80559412       2.69134692      -0.43909152       0.00000000
Si      -2.88128832       2.56574016      -0.66011424       0.00000000
