10
Lattice="16.28999089631971 0.0 0.0 0.0 16.28999089631971 0.0 0.0 0.0 34.40246978574605" Properties=species:S:1:pos:R:3:initial_magmoms:R:1 pbc="T T T"
Si      -1.35775521      -1.35565720      -1.35700618       0.00000000
Si      -1.35718506       1.35718017       1.35762542       0.00000000
Si       1.35744570      -1.35761589       1.35717819       0.00000000
Si       1.35819504       1.35853224      -1.35690297       0.00000000
Si       2.71344159      -0.00345185      -2.71504443       0.00000000
Si      -2.71437012      -0.00061902      -2.71425318       0.00000000
Si      -2.71453302      -2.71501750      -0.00013761       0.00000000
Si      -2.71450044       2.71514715       0.00000000       0.00000000
Si       2.71539639      -2.71456138      -0.00020641       0.00000000
Si       2.71560816      -0.00034209       2.71501003       0.00000000
