10
Lattice="16.28999089631971 0.0 0.0 0.0 16.28999089631971 0.0 0.0 0.0 34.40246978574605" Properties=species:S:1:pos:R:3:initial_magmoms:R:1 pbc="T T T"
Si      -1.64134782      -0.00465894      -1.67330266       0.00000000
Si       0.27411183       2.22350355       0.82462766       0.00000000
Si      -0.84701484      -1.12759380       1.92695221       0.00000000
Si       1.00870938      -2.02817993      -0.89546239       0.00000000
Si      -0.56138598      -3.04941307       0.52560123       0.00000000
Si      -2.87848047       0.08747730       1.52440869       0.00000000
Si      -2.15344026      -2.27660081      -1.03448284       0.00000000
Si      -2.96505856       1.48730958      -0.42435470       0.00000000
Si       3.00530952      -1.68570060       0.13795398       0.00000000
Si       2.61768897       2.45763972       0.45937644       0.00000000
