10
Lattice="16.28999089631971 0.0 0.0 0.0 16.28999089631971 0.0 0.0 0.0 34.40246978574605" Properties=species:S:1:pos:R:3:initial_magmoms:R:1 pbc="T T T"
Si      -1.34876313      -1.36091547      -1.34637581       0.00000000
Si       1.13231790      -1.30080537       1.58444103       0.00000000
Si       1.36586763       1.35097857      -1.34376122       0.00000000
Si      -1.38095217       1.34685720       1.33963292       0.00000000
Si       1.75021389       0.82438803       2.72928706       0.00000000
Si      -2.35212939      -0.37690173       2.67479352       0.00000000
Si       0.15537402       2.78599725       2.45774822       0.00000000
Si       2.69532711      -2.68074756       0.02249923       0.00000000
Si      -2.70684414      -0.00454491      -2.70431086       0.00000000
Si       0.00744453       2.71103067      -2.70496450       0.00000000
