10
Lattice="16.28999089631971 0.0 0.0 0.0 16.28999089631971 0.0 0.0 0.0 34.40246978574605" Properties=species:S:1:pos:R:3:initial_magmoms:R:1 pbc="T T T"
Si       0.66354057       2.17686528       0.62540285       0.00000000
Si       1.77823269      -1.46246733       0.64477145       0.00000000
Si       0.64501884      -0.25873407      -2.41316259       0.00000000
Si      -1.89421749      -0.96532911       1.44941126       0.00000000
Si       1.91567142      -0.87992064       2.91030956       0.00000000
Si       0.57575376      -3.49036056       0.79624561       0.00000000
Si      -1.15639452       2.52379341       2.48836643       0.00000000
Si      -1.18304496       0.87356754      -3.48789635       0.00000000
Si       0.24027750       3.62776671      -1.22840968       0.00000000
Si      -2.50757346      -2.39476032      -1.71338156       0.00000000
