10
Lattice="16.28999089631971 0.0 0.0 0.0 16.28999089631971 0.0 0.0 0.0 34.40246978574605" Properties=species:S:1:pos:R:3:initial_magmoms:R:1 pbc="T T T"
Si       1.17869553      -0.21424608       2.08764624       0.00000000
Si       0.39025953       1.88110404      -1.50005173       0.00000000
Si       1.06528455      -1.75187547      -1.36398988       0.00000000
Si      -2.55933819      -0.04039920       0.11390664       0.00000000
Si      -1.51223328       3.18166506      -0.81458213       0.00000000
Si      -0.49575357      -1.15326684       3.50131818       0.00000000
Si      -2.98260126       1.41050223      -1.73990588       0.00000000
Si       3.30701661      -0.85918347      -1.60346561       0.00000000
Si      -3.22287876      -2.21726448      -0.51149621       0.00000000
Si      -1.44464607      -3.67973181       0.13327524       0.00000000
