10
Lattice="16.28999089631971 0.0 0.0 0.0 16.28999089631971 0.0 0.0 0.0 34.40246978574605" Properties=species:S:1:pos:R:3:initial_magmoms:R:1 pbc="T T T"
Si      -1.18208385      -1.34855136      -1.48719349       0.00000000
Si      -1.42073235       1.26089487       1.42871129       0.00000000
Si       1.28345652      -1.44567234       1.41112473       0.00000000
Si       1.07307117       1.57275063      -1.59428844       0.00000000
Si      -2.56589003      -2.67209757       0.10010436       0.00000000
Si      -2.75019672       2.56595193       0.00500900       0.00000000
Si       2.67687054       2.67986790      -0.06525120       0.00000000
Si       0.63785124      -1.69547949      -3.35015708       0.00000000
Si      -0.07714944       2.62443303       2.79379861       0.00000000
Si       2.63586861      -0.09353718       2.78953270       0.00000000
