10
Lattice="16.28999089631971 0.0 0.0 0.0 16.28999089631971 0.0 0.0 0.0 34.40246978574605" Properties=species:S:1:pos:R:3:initial_magmoms:R:1 pbc="T T T"
Si       1.35382932      -1.35731538       1.35576769       0.00000000
Si      -1.35863487       1.35617508       1.35566448       0.00000000
Si      -1.34358291      -1.36353816      -1.36508732       0.00000000
Si       1.35677781       1.34395758      -1.37446888       0.00000000
Si       0.07714944      -2.62443303      -2.79379861       0.00000000
Si       2.71248048      -0.00045612       2.71349632       0.00000000
Si       2.70972747       2.71663443      -0.00577962       0.00000000
Si      -0.00182448       2.71440270       2.71325550       0.00000000
Si      -0.00216657      -2.71551042       2.71359953       0.00000000
Si      -2.71724205      -0.00083079       2.71339311       0.00000000
