10
Lattice="16.28999089631971 0.0 0.0 0.0 16.28999089631971 0.0 0.0 0.0 34.40246978574605" Properties=species:S:1:pos:R:3:initial_magmoms:R:1 pbc="T T T"
Si      -1.35782037       1.35643572       1.35666215       0.00000000
Si      -1.35726651      -1.35637056      -1.35831347       0.00000000
Si       1.35599589       1.35819504      -1.35783184       0.00000000
Si       1.35778779      -1.35798327       1.35676536       0.00000000
Si      -2.71574174       0.00037467       2.71208582       0.00000000
Si       2.71454931       0.00039096       2.71346192       0.00000000
Si       0.00216657       2.71551042      -2.71359953       0.00000000
Si       0.00026064      -2.71518462       2.71411557       0.00000000
Si       2.71464705       2.71505430      -0.00010321       0.00000000
Si      -2.71507548       2.71467963      -0.00020641       0.00000000
