10
Lattice="16.28999089631971 0.0 0.0 0.0 16.28999089631971 0.0 0.0 0.0 34.40246978574605" Properties=species:S:1:pos:R:3:initial_magmoms:R:1 pbc="T T T"
Si      -2.18510802      -1.07872380      -0.19320438       0.00000000
Si      -0.21916566       1.80691938      -1.67749977       0.00000000
Si      -0.24734736       0.35201061       2.48441015       0.00000000
Si       2.18706282      -1.24414875      -0.58150527       0.00000000
Si       0.73528173       0.33578577      -3.27487614       0.00000000
Si      -0.77467095       2.63700891       2.46225494       0.00000000
Si      -1.77964992      -3.16719954       0.78812662       0.00000000
Si       2.07980946      -3.31579692       0.47998353       0.00000000
Si      -2.23616088      -0.66140658       3.24670050       0.00000000
Si      -3.72825972      -0.39861630       1.40833469       0.00000000
