10
Lattice="16.28999089631971 0.0 0.0 0.0 16.28999089631971 0.0 0.0 0.0 34.40246978574605" Properties=species:S:1:pos:R:3:initial_magmoms:R:1 pbc="T T T"
Si      -1.73677464      -1.31453784      -0.95607957       0.00000000
Si       0.45540324       1.78228890      -1.52258536       0.00000000
Si      -0.96265755       1.29863880       1.75807040       0.00000000
Si       1.85691339      -1.67498667       0.15900830       0.00000000
Si       2.78992314       2.02219173      -1.28654988       0.00000000
Si       0.42705864       0.84432699      -3.68010305       0.00000000
Si      -3.24285030       0.27881964      -1.99799335       0.00000000
Si      -1.81395666      -0.08146629       3.44723261       0.00000000
Si       2.67778278      -1.94417892      -2.08799027       0.00000000
Si      -1.03443129      -2.45408850      -2.89565750       0.00000000
