10
Lattice="16.28999089631971 0.0 0.0 0.0 16.28999089631971 0.0 0.0 0.0 34.40246978574605" Properties=species:S:1:pos:R:3:initial_magmoms:R:1 pbc="T T T"
Si       0.82086939      -0.26919225      -2.24699857       0.00000000
Si       2.19234078       0.21986613       1.06131679       0.00000000
Si      -0.78995097      -1.93965030       1.28630906       0.00000000
Si      -1.85691339       1.67498667      -0.15900830       0.00000000
Si       2.05086213       1.78676865      -2.46844739       0.00000000
Si       2.63318076      -2.02906611       1.72831224       0.00000000
Si       1.63191591      -2.56365504      -2.20052081       0.00000000
Si       1.73586240       1.35275418       3.04919581       0.00000000
Si       0.70815888      -2.05962615       3.07475686       0.00000000
Si      -3.59368803       0.36044883      -1.11508788       0.00000000
