10
Lattice="16.28999089631971 0.0 0.0 0.0 16.28999089631971 0.0 0.0 0.0 34.40246978574605" Properties=species:S:1:pos:R:3:initial_magmoms:R:1 pbc="T T T"
Si      -2.30125572      -0.01484019       0.49443257       0.00000000
Si       0.39030840      -0.00361638      -2.35526320       0.00000000
Si       0.42326307      -1.45090143       1.85381252       0.00000000
Si       1.47036798       1.77116283       0.92532375       0.00000000
Si       3.37286079       0.47060181       0.23985415       0.00000000
Si       2.75546979      -0.01651806      -2.05565193       0.00000000
Si      -2.43887364       2.40270984       0.84544117       0.00000000
Si      -3.04087385      -1.10825757      -1.45095938       0.00000000
Si      -1.18239336       1.60428807      -2.95046067       0.00000000
Si       2.98260126      -1.41050223       1.73990588       0.00000000
