10
Lattice="16.28999089631971 0.0 0.0 0.0 16.28999089631971 0.0 0.0 0.0 34.40246978574605" Properties=species:S:1:pos:R:3:initial_magmoms:R:1 pbc="T T T"
Si      -1.35123921      -1.34886087      -1.37826692       0.00000000
Si       1.24615242      -1.49843565       1.32969060       0.00000000
Si       1.37163429       1.35725022      -1.37654679       0.00000000
Si      -1.28484117       1.36376977       1.57639085       0.00000000
Si       2.20884255      -0.16219953       3.00209880       0.00000000
Si      -2.69368019       2.71272713       0.01640999       0.00000000
Si      -2.71921640      -2.70915732       0.00079126       0.00000000
Si      -2.70154337      -0.00314397      -2.73792209       0.00000000
Si       2.72616408       2.72113766       0.02958614       0.00000000
Si       0.01089801       2.71137995      -2.73726844       0.00000000
