10
Lattice="16.28999089631971 0.0 0.0 0.0 16.28999089631971 0.0 0.0 0.0 34.40246978574605" Properties=species:S:1:pos:R:3:initial_magmoms:R:1 pbc="T T T"
Si      -0.02834460      -0.93796191      -2.15751770       0.00000000
Si       2.33451990       0.23990283       0.23603548       0.00000000
Si      -0.45540324      -1.78228890       1.52258536       0.00000000
Si      -1.19448054       2.11765113      -0.23682673       0.00000000
Si      -2.37864951      -0.64567044      -2.50164579       0.00000000
Si      -1.41806079      -0.48365010       3.28065575       0.00000000
Si       1.68200766       0.26314866      -3.40612163       0.00000000
Si      -0.56037600       2.93553945      -2.38791116       0.00000000
Si      -2.19217788      -3.09682674       0.56650579       0.00000000
Si       3.04108236       2.24186238      -0.89164371       0.00000000
