10
Lattice="16.28999089631971 0.0 0.0 0.0 16.28999089631971 0.0 0.0 0.0 34.40246978574605" Properties=species:S:1:pos:R:3:initial_magmoms:R:1 pbc="T T T"
Si       0.86123601       0.57866967       2.10804692       0.00000000
Si      -2.33451990      -0.23990283      -0.23603548       0.00000000
Si       0.70656246       2.00195955      -1.12767919       0.00000000
Si       1.11785238      -1.91040975      -1.02288921       0.00000000
Si       2.47272426       0.96413994      -2.28195150       0.00000000
Si      -2.36286450      -1.17786474      -2.39355317       0.00000000
Si       1.45010322      -0.99715977      -3.13719738       0.00000000
Si      -2.78992314      -2.02219173       1.28654988       0.00000000
Si      -0.65251224       0.02324583      -3.64215711       0.00000000
Si       3.22781463       0.74080404       1.69112315       0.00000000
