10
Lattice="16.28999089631971 0.0 0.0 0.0 16.28999089631971 0.0 0.0 0.0 34.40246978574605" Properties=species:S:1:pos:R:3:initial_magmoms:R:1 pbc="T T T"
Si       1.35692442      -1.35711501      -1.36337064       0.00000000
Si      -1.35873261       1.35824391      -1.36264819       0.00000000
Si       1.32887304       1.39690008       1.36275139       0.00000000
Si      -1.35995436      -1.34811153       1.40341514       0.00000000
Si       2.80570815       0.12367368       2.60843112       0.00000000
Si      -2.71448415      -2.71199897      -0.00271780       0.00000000
Si       2.71428867      -2.71342052      -0.00743094       0.00000000
Si       2.71207323       2.71870326      -0.00478195       0.00000000
Si      -2.71521720       2.71673217      -0.00612364       0.00000000
Si      -0.00123804      -2.71438881      -2.72120248       0.00000000
