10
Lattice="16.28999089631971 0.0 0.0 0.0 16.28999089631971 0.0 0.0 0.0 34.40246978574605" Properties=species:S:1:pos:R:3:initial_magmoms:R:1 pbc="T T T"
Si      -2.39182812       0.25184340       0.30934718       0.00000000
Si       1.12189230      -1.87326855      -1.08010055       0.00000000
Si       0.11810250       2.17969974      -1.18791795       0.00000000
Si      -0.33387984      -0.71767224       2.46304968       0.00000000
Si       1.93266189      -0.35629488      -2.79410135       0.00000000
Si       3.14885700       0.91041552      -1.17828525       0.00000000
Si      -2.25438939       0.83439009       2.57488529       0.00000000
Si       2.07990720       1.96533963       2.19322748       0.00000000
Si      -1.18146483       1.68971283      -3.11383809       0.00000000
Si      -0.62007885      -3.46610801      -1.32803928       0.00000000
