10
Lattice="16.28999089631971 0.0 0.0 0.0 16.28999089631971 0.0 0.0 0.0 34.40246978574605" Properties=species:S:1:pos:R:3:initial_magmoms:R:1 pbc="T T T"
Si      -1.34107425      -1.36251189      -1.39202791       0.00000000
Si       1.36958175       1.35301482      -1.38745238       0.00000000
Si       1.45057563      -1.29603240       1.42464147       0.00000000
Si      -1.57003020       1.31194773       1.50063657       0.00000000
Si      -0.23892543       1.69978005       3.40773855       0.00000000
Si      -2.67960726       2.71826343      -0.03736110       0.00000000
Si      -2.72427444      -2.68431507      -0.02449457       0.00000000
Si       2.71842633      -2.69405649      -0.04630575       0.00000000
Si       2.73873996       2.70487305      -0.01823332       0.00000000
Si      -2.69410536      -0.00666261      -2.75099503       0.00000000
