10
Lattice="16.28999089631971 0.0 0.0 0.0 16.28999089631971 0.0 0.0 0.0 34.40246978574605" Properties=species:S:1:pos:R:3:initial_magmoms:R:1 pbc="T T T"
Si       1.36396170       1.35114147       1.37788161       0.00000000
Si      -1.35143469      -1.36850661       1.37808802       0.00000000
Si       1.37168316      -1.25898894      -1.47915566       0.00000000
Si      -1.31043276       1.40489847      -1.47669588       0.00000000
Si      -2.70767493       2.69342118       0.00788505       0.00000000
Si       2.69941590       2.71609686       0.03594372       0.00000000
Si       2.71357191      -2.70441693       0.00303774       0.00000000
Si      -2.70384678      -2.72064177      -0.00031994       0.00000000
Si       0.00729792       2.70718623       2.73781200       0.00000000
Si      -2.71062342      -0.00785178       2.73812162       0.00000000
