10
Lattice="16.28999089631971 0.0 0.0 0.0 16.28999089631971 0.0 0.0 0.0 34.40246978574605" Properties=species:S:1:pos:R:3:initial_magmoms:R:1 pbc="T T T"
Si      -1.34654769      -1.33843527       1.35618052       0.00000000
Si       1.35207000      -1.34688978      -1.35676536       0.00000000
Si      -1.36572102       1.36534635      -1.35573329       0.00000000
Si       1.35842310       1.36673100       1.38473459       0.00000000
Si      -2.47578678       0.19166814       2.70867997       0.00000000
Si       2.70264132      -2.70368388       0.00608924       0.00000000
Si      -0.00620649      -2.70673011      -2.71442519       0.00000000
Si       2.70875007       0.00773775      -2.71511324       0.00000000
Si       2.69967654       2.72982933      -0.00116968       0.00000000
Si      -2.72067435      -2.70928764       0.00278660       0.00000000
