10
Lattice="16.28999089631971 0.0 0.0 0.0 16.28999089631971 0.0 0.0 0.0 34.40246978574605" Properties=species:S:1:pos:R:3:initial_magmoms:R:1 pbc="T T T"
Si       1.32966310       1.41713226       1.27938866       0.00000000
Si      -1.02833461       1.66985532      -1.27444713       0.00000000
Si      -1.51690429      -1.37003787       1.22387336       0.00000000
Si       1.97564631      -0.74844405      -1.34686436       0.00000000
Si       0.23375824      -1.27713600      -2.71976449       0.00000000
Si      -1.31446846       0.35150562      -3.22603152       0.00000000
Si       2.48321013      -0.08374689       2.61930024       0.00000000
Si       0.74267087       3.29748696      -1.49187086       0.00000000
Si      -0.22868277       2.62734894       2.62793183       0.00000000
Si      -0.23805571      -2.78278812       2.60254279       0.00000000
