10
Lattice="16.28999089631971 0.0 0.0 0.0 16.28999089631971 0.0 0.0 0.0 34.40246978574605" Properties=species:S:1:pos:R:3:initial_magmoms:R:1 pbc="T T T"
Si      -1.35498591      -1.35814617      -1.35886391       0.00000000
Si      -1.35834165       1.36257705       1.35356593       0.00000000
Si       1.35992178       1.35848826      -1.35955196       0.00000000
Si       1.36572102      -1.36534635       1.35573329       0.00000000
Si      -2.69869914       0.00021177       2.71683336       0.00000000
Si       0.01917333      -2.70378162       2.71191381       0.00000000
Si      -2.71192662       2.71409319      -0.00147931       0.00000000
Si      -2.71337643      -2.71458189      -0.00268339       0.00000000
Si      -2.71327869       0.00008145      -2.71624852       0.00000000
Si      -0.01834254       2.72072322       2.70874878       0.00000000
