10
Lattice="16.28999089631971 0.0 0.0 0.0 16.28999089631971 0.0 0.0 0.0 34.40246978574605" Properties=species:S:1:pos:R:3:initial_magmoms:R:1 pbc="T T T"
Si      -1.30007232       1.31624829      -1.39746351       0.00000000
Si       1.05956676       1.66001616       1.33870405       0.00000000
Si       1.44241434      -1.40309028      -1.36574441       0.00000000
Si      -1.23409782      -1.23336477       1.72796822       0.00000000
Si      -2.39179554      -2.57815314      -0.04179902       0.00000000
Si       0.88730001      -1.62727326       3.07049095       0.00000000
Si      -1.19384523       2.87631294       1.98904871       0.00000000
Si      -2.73900060       2.48725494       0.09643018       0.00000000
Si      -2.64007143      -0.04189788      -2.75264635       0.00000000
Si       0.07819200       2.66883525      -2.75161428       0.00000000
