10
Lattice="16.28999089631971 0.0 0.0 0.0 16.28999089631971 0.0 0.0 0.0 34.40246978574605" Properties=species:S:1:pos:R:3:initial_magmoms:R:1 pbc="T T T"
Si       0.13717809       2.33082207       0.03839318       0.00000000
Si       1.21492449      -1.79950743       0.96430177       0.00000000
Si       0.71258976      -0.36274572      -2.24417757       0.00000000
Si      -2.36657862      -0.16213437       0.41692376       0.00000000
Si       0.19416051      -2.64155382      -2.23323757       0.00000000
Si       0.14662629      -3.57070284      -0.12175041       0.00000000
Si      -1.93694616       2.80459947      -1.09492802       0.00000000
Si      -3.22781463      -0.74080404      -1.69112315       0.00000000
Si      -3.05900136       2.07329346       0.78331027       0.00000000
Si       2.15102934       3.15782694      -0.78361989       0.00000000
