10
Lattice="16.28999089631971 0.0 0.0 0.0 16.28999089631971 0.0 0.0 0.0 34.40246978574605" Properties=species:S:1:pos:R:3:initial_magmoms:R:1 pbc="T T T"
Si       1.27195578      -1.34539503       1.49126533       0.00000000
Si      -0.97787241      -1.68434106      -1.42746389       0.00000000
Si       1.92484269       0.87389660      -1.16754170       0.00000000
Si      -1.42667820       1.37005742       1.45970449       0.00000000
Si      -1.03982328      -0.11703062      -3.41455166       0.00000000
Si       2.62347192      -2.69480976       0.13067097       0.00000000
Si       1.18983789       0.99281360      -3.42986077       0.00000000
Si      -2.73854448      -2.68505205       0.06205521       0.00000000
Si       2.63306673       0.00489026       2.84496199       0.00000000
Si       2.73219138       2.78393168       0.10074081       0.00000000
