10
Lattice="16.28999089631971 0.0 0.0 0.0 16.28999089631971 0.0 0.0 0.0 34.40246978574605" Properties=species:S:1:pos:R:3:initial_magmoms:R:1 pbc="T T T"
Si       0.56956356      -0.43477358      -2.20949986       0.00000000
Si      -2.01385125      -0.82700487       0.82201307       0.00000000
Si       0.16270452       2.27645908       0.53623160       0.00000000
Si       1.68909381      -1.17432396       1.17336569       0.00000000
Si       0.79490313      -2.81497131      -1.93496799       0.00000000
Si      -1.74115665       2.41070497       1.94642402       0.00000000
Si       2.42424522       2.19660550       1.45904396       0.00000000
Si       3.51804120       0.25094745       0.65117031       0.00000000
Si      -2.14676136       0.27093528       2.91361560       0.00000000
Si       1.99247877      -3.26242503       0.07183240       0.00000000
