10
Lattice="16.28999089631971 0.0 0.0 0.0 16.28999089631971 0.0 0.0 0.0 34.40246978574605" Properties=species:S:1:pos:R:3:initial_magmoms:R:1 pbc="T T T"
Si       1.35461124       1.33968960      -1.37210887       0.00000000
Si       1.32791193      -1.34177472       1.41383909       0.00000000
Si      -1.35820223      -1.37645613      -1.37241849       0.00000000
Si      -1.33048005       1.36785501       1.44026020       0.00000000
Si      -2.14043174      -0.38195163       2.92679175       0.00000000
Si      -0.40302926      -2.20674114       3.02387558       0.00000000
Si      -2.70885500       2.69426826       0.00371547       0.00000000
Si       2.70011637       2.71129131      -0.00818779       0.00000000
Si      -0.00005213       2.69684208      -2.73138562       0.00000000
Si       2.69614161      -2.73388554       0.00660528       0.00000000
