10
Lattice="16.28999089631971 0.0 0.0 0.0 16.28999089631971 0.0 0.0 0.0 34.40246978574605" Properties=species:S:1:pos:R:3:initial_magmoms:R:1 pbc="T T T"
Si       1.02833461      -1.66985532       1.27444713       0.00000000
Si      -0.28613385      -1.31834970      -1.95158440       0.00000000
Si      -1.81006335       0.98363907       1.25255717       0.00000000
Si       1.77100549       1.62763164      -0.21742373       0.00000000
Si       2.35799772      -0.25272306       2.55383578       0.00000000
Si       1.26209286      -2.94699132      -1.44531737       0.00000000
Si      -0.50595111       2.33567649       2.60636839       0.00000000
Si       0.87106590       3.49112619       1.11264530       0.00000000
Si      -2.58460398       2.85301431       0.04664978       0.00000000
Si       3.00398093      -2.41829937      -0.07241724       0.00000000
