10
Lattice="16.28999089631971 0.0 0.0 0.0 16.28999089631971 0.0 0.0 0.0 34.40246978574605" Properties=species:S:1:pos:R:3:initial_magmoms:R:1 pbc="T T T"
Si       1.34622189       1.34969166       1.36107255       0.00000000
Si       1.42819317      -1.35829278      -1.28084595       0.00000000
Si      -1.36821339      -1.36702422       1.35911161       0.00000000
Si      -1.28065464       1.53085275      -1.29757588       0.00000000
Si       0.12408093      -2.71033020      -2.63465717       0.00000000
Si      -2.52675819       0.19197765      -2.84784634       0.00000000
Si       2.71389476       2.68385895      -0.01348922       0.00000000
Si      -0.00899208       2.70674640       2.71628980       0.00000000
Si       2.70757719      -0.00607617       2.71646182       0.00000000
Si      -2.73108366      -2.70404226      -0.01900049       0.00000000
