10
Lattice="16.28999089631971 0.0 0.0 0.0 16.28999089631971 0.0 0.0 0.0 34.40246978574605" Properties=species:S:1:pos:R:3:initial_magmoms:R:1 pbc="T T T"
Si      -2.20002966      -0.66024999       0.49033868       0.00000000
Si      -0.05737338       2.32876953      -0.31743177       0.00000000
Si       1.44883260      -0.80001819       1.72525042       0.00000000
Si       0.18590148      -0.89044398      -2.55197663       0.00000000
Si       3.03912171       0.10078623      -1.14130257       0.00000000
Si       2.05271497       2.35484982      -1.31018439       0.00000000
Si       0.76637934      -3.11922549       1.15781577       0.00000000
Si      -1.69347582      -2.92040604       0.99897948       0.00000000
Si      -3.51723906       0.08087985      -1.40651136       0.00000000
Si      -0.57741534       3.41454690       1.71671860       0.00000000
