10
Lattice="16.28999089631971 0.0 0.0 0.0 16.28999089631971 0.0 0.0 0.0 34.40246978574605" Properties=species:S:1:pos:R:3:initial_magmoms:R:1 pbc="T T T"
Si      -0.86900634      -0.08737956       2.19171377       0.00000000
Si      -1.44883260       0.80001819      -1.72525042       0.00000000
Si      -0.68245326      -2.31920730      -0.56743465       0.00000000
Si       2.05722242       1.38753333       0.30748945       0.00000000
Si       1.59028911       0.90080442      -2.86655299       0.00000000
Si       0.90126773      -2.65667094      -2.33486253       0.00000000
Si       3.56329808      -0.20582415       1.34940323       0.00000000
Si       2.77354259      -1.08258453      -2.42854050       0.00000000
Si       0.65269373      -1.39685121       3.52659915       0.00000000
Si      -3.64886226       0.13976820      -1.23491175       0.00000000
