10
Lattice="16.28999089631971 0.0 0.0 0.0 16.28999089631971 0.0 0.0 0.0 34.40246978574605" Properties=species:S:1:pos:R:3:initial_magmoms:R:1 pbc="T T T"
Si      -1.35724572      -1.35733228       1.35645574       0.00000000
Si       1.35840383       1.35758748       1.35659335       0.00000000
Si      -1.35884214       1.35502506      -1.36158171       0.00000000
Si       1.35755512      -1.35544264      -1.36333624       0.00000000
Si      -2.71330677       2.71494684      -0.00027522       0.00000000
Si       0.00147238       2.71486539       2.71390915       0.00000000
Si       0.00109319      -2.71492459       2.71401236       0.00000000
Si      -2.71547334       0.00018345       2.71390915       0.00000000
Si      -2.71428417      -2.71531555      -0.00061924       0.00000000
Si       2.71576645       0.00012253       2.71445959       0.00000000
