10
Lattice="16.28999089631971 0.0 0.0 0.0 16.28999089631971 0.0 0.0 0.0 34.40246978574605" Properties=species:S:1:pos:R:3:initial_magmoms:R:1 pbc="T T T"
Si       0.58116204       1.85430699      -1.31527596       0.00000000
Si       0.54082800      -2.00018394      -1.12183076       0.00000000
Si      -2.34742158       0.15939765       0.36081330       0.00000000
Si       1.21593447      -0.33785460       2.04687929       0.00000000
Si      -1.58491926      -3.01966101      -0.85713801       0.00000000
Si       2.84124383       1.44616104      -1.69449460       0.00000000
Si      -2.48082039      -0.02839347       2.65453045       0.00000000
Si      -0.46929861      -0.70970643       3.63503579       0.00000000
Si      -3.41571978      -1.61179776      -0.72523887       0.00000000
Si       2.06252807      -3.30965559       0.21305461       0.00000000
