10
Lattice="16.28999089631971 0.0 0.0 0.0 16.28999089631971 0.0 0.0 0.0 34.40246978574605" Properties=species:S:1:pos:R:3:initial_magmoms:R:1 pbc="T T T"
Si       1.35521397      -1.35705474      -1.35521725       0.00000000
Si      -1.35741312      -1.35695700       1.35759102       0.00000000
Si       1.35703845       1.35798327       1.35707498       0.00000000
Si      -1.35834165       1.36228383      -1.35755662       0.00000000
Si       0.00899208      -2.70674640      -2.71628980       0.00000000
Si      -2.71443528       0.00104256       2.71421877       0.00000000
Si      -2.71437012      -2.71463076       0.00065365       0.00000000
Si      -2.71290402       2.71641151       0.00024082       0.00000000
Si       2.71656927      -2.71282257       0.00017201       0.00000000
Si       0.00011403      -2.71505430       2.71439079       0.00000000
