10
Lattice="16.28999089631971 0.0 0.0 0.0 16.28999089631971 0.0 0.0 0.0 34.40246978574605" Properties=species:S:1:pos:R:3:initial_magmoms:R:1 pbc="T T T"
Si       1.35724572       1.35733228      -1.35645574       0.00000000
Si      -1.35703845      -1.35798327      -1.35707498       0.00000000
Si      -1.35822762       1.35751573       1.35745341       0.00000000
Si       1.35833892      -1.35759231       1.35755662       0.00000000
Si      -0.00182448      -2.71503801      -2.71229223       0.00000000
Si      -2.71435383      -0.00208512       2.71311789       0.00000000
Si      -2.71379997       2.71423233       0.00075685       0.00000000
Si      -2.71445157      -2.71494027       0.00051604       0.00000000
Si      -2.71538010       0.00430056      -2.71463160       0.00000000
Si      -0.00159642       2.71235735      -2.71803745       0.00000000
