10
Lattice="16.28999089631971 0.0 0.0 0.0 16.28999089631971 0.0 0.0 0.0 34.40246978574605" Properties=species:S:1:pos:R:3:initial_magmoms:R:1 pbc="T T T"
Si      -0.68779638       1.02483648      -2.05468866       0.00000000
Si      -0.86006313      -2.26245294      -0.32290176       0.00000000
Si       2.32350786       0.40871610       0.63506995       0.00000000
Si      -1.36241415       1.02623742       1.77245064       0.00000000
Si       1.95216102      -1.20229974       2.72949348       0.00000000
Si      -1.74736314      -0.63517968      -3.39339271       0.00000000
Si      -2.98146096      -1.86854445      -1.66542449       0.00000000
Si      -2.94120837       2.24113326      -1.40434400       0.00000000
Si       3.83747979      -0.76429422      -0.94090807       0.00000000
Si       1.12480821       2.13127496      -3.25113842       0.00000000
