10
Lattice="16.28999089631971 0.0 0.0 0.0 16.28999089631971 0.0 0.0 0.0 34.40246978574605" Properties=species:S:1:pos:R:3:initial_magmoms:R:1 pbc="T T T"
Si      -1.35461124      -1.33968960       1.37210887       0.00000000
Si      -1.35466337       1.35715248      -1.35927674       0.00000000
Si       1.36133901      -1.35840681      -1.35724700       0.00000000
Si       1.34550513       1.37160171       1.36392108       0.00000000
Si       2.68723098      -0.00700470       2.68669678       0.00000000
Si      -2.70210800       2.70560610      -0.00178893       0.00000000
Si      -2.71051233      -0.00042354      -2.71497563       0.00000000
Si       0.00325800       2.71321353      -2.71470041       0.00000000
Si      -2.71281347      -2.71614573      -0.00030962       0.00000000
Si       0.00343719      -2.71564074      -2.71439079       0.00000000
