10
Lattice="16.28999089631971 0.0 0.0 0.0 16.28999089631971 0.0 0.0 0.0 34.40246978574605" Properties=species:S:1:pos:R:3:initial_magmoms:R:1 pbc="T T T"
Si       1.50607566      -1.59335748       1.04191378       0.00000000
Si      -0.62581293       1.97143209       1.31156049       0.00000000
Si      -2.05722242      -1.38753333      -0.30748945       0.00000000
Si       1.31960403       0.85779882      -2.02623780       0.00000000
Si      -0.46693330      -0.48672891      -3.17404244       0.00000000
Si       2.20841901      -2.73290814      -0.89766415       0.00000000
Si       0.14397102       3.70703385      -0.08631584       0.00000000
Si       0.71632017      -2.47011786      -2.73602995       0.00000000
Si      -2.92622876      -1.47491289       1.88422432       0.00000000
Si       3.24285030      -0.27881964       1.99799335       0.00000000
