10
Lattice="16.28999089631971 0.0 0.0 0.0 16.28999089631971 0.0 0.0 0.0 34.40246978574605" Properties=species:S:1:pos:R:3:initial_magmoms:R:1 pbc="T T T"
Si      -0.73961813      -1.09341738      -1.94539195       0.00000000
Si       2.30125572       0.01484019      -0.49443257       0.00000000
Si      -1.06621471      -0.53232462       2.03838188       0.00000000
Si      -0.13761792       2.41755003       0.35100860       0.00000000
Si       2.72451879      -1.43606124       1.35937995       0.00000000
Si       0.90458370      -1.08913311       3.22234354       0.00000000
Si       0.47936583       3.23296227      -1.83984511       0.00000000
Si      -2.86830152      -2.05925148      -1.60721548       0.00000000
Si       2.69156412       0.01122381      -2.84969577       0.00000000
Si      -0.96039487       0.42847587      -3.78193442       0.00000000
