10
Lattice="16.28999089631971 0.0 0.0 0.0 16.28999089631971 0.0 0.0 0.0 34.40246978574605" Properties=species:S:1:pos:R:3:initial_magmoms:R:1 pbc="T T T"
Si       0.61698375       0.81541224      -2.19085371       0.00000000
Si       0.13761792      -2.41755003      -0.35100860       0.00000000
Si       1.68691095       0.76936041       1.62723773       0.00000000
Si      -2.25104084       1.09496493       0.52708053       0.00000000
Si      -0.92859679      -2.94987465       1.68737328       0.00000000
Si       2.43887364      -2.40270984      -0.84544117       0.00000000
Si      -1.82853637      -1.08638010       3.01744231       0.00000000
Si       0.39159531       2.12644773       3.02294671       0.00000000
Si      -1.45077926       3.35854188       1.46847024       0.00000000
Si       3.90924162      -0.63154701       0.07988258       0.00000000
