10
Lattice="16.28999089631971 0.0 0.0 0.0 16.28999089631971 0.0 0.0 0.0 34.40246978574605" Properties=species:S:1:pos:R:3:initial_magmoms:R:1 pbc="T T T"
Si      -1.35030416       1.34571690      -1.35965517       0.00000000
Si       1.35123921       1.34886087       1.37826692       0.00000000
Si       1.36445040      -1.36863693      -1.35717819       0.00000000
Si      -1.36797719      -1.36029645       1.37905817       0.00000000
Si       2.59739163      -0.14957478       2.70795752       0.00000000
Si       0.07956036      -2.60042157       2.77063886       0.00000000
Si      -2.70468027       2.70127809       0.00419710       0.00000000
Si       0.00614133       2.70426314      -2.71628292       0.00000000
Si      -2.70853193      -0.01078398      -2.71673015       0.00000000
Si       2.72287350       2.70611109       0.00172012       0.00000000
