10
Lattice="16.28999089631971 0.0 0.0 0.0 16.28999089631971 0.0 0.0 0.0 34.40246978574605" Properties=species:S:1:pos:R:3:initial_magmoms:R:1 pbc="T T T"
Si      -0.92758518      -1.85230332      -1.00854337       0.00000000
Si       2.13157419      -0.55081377      -0.76125828       0.00000000
Si       0.66972588       0.08739585       2.24806505       0.00000000
Si      -1.41929461       1.62855921      -0.99688092       0.00000000
Si       1.84535889      -2.76183918       0.30814309       0.00000000
Si      -0.01346531       2.38668767       2.40955033       0.00000000
Si      -2.66632669      -0.26736777      -2.11021427       0.00000000
Si      -1.86368581       2.85943161       1.00118124       0.00000000
Si      -3.03767353      -1.87838361      -0.01579074       0.00000000
Si       0.00796744       2.44412621      -2.67310780       0.00000000
