10
Lattice="16.28999089631971 0.0 0.0 0.0 16.28999089631971 0.0 0.0 0.0 34.24959146834617" Properties=species:S:1:pos:R:3:initial_magmoms:R:1 pbc="T T T"
Si       1.35097368      -1.29456208       1.40706305       0.00000000
Si      -0.94009101      -1.76144977      -1.23618387       0.00000000
Si       1.00191156       1.63039605      -1.45424330       0.00000000
Si      -1.37717880       1.41237069       1.39905549       0.00000000
Si       2.62356477      -2.68980058      -0.01676518       0.00000000
Si      -2.72288557      -2.68238863       0.03824997       0.00000000
Si       2.60546658       2.79715101      -0.15714064       0.00000000
Si      -0.02258608      -2.64873349       2.76330311       0.00000000
Si      -0.68453023       3.51597984      -1.37457871       0.00000000
Si      -2.64037672       2.80980834      -0.00979881       0.00000000
