10
Lattice="16.28999089631971 0.0 0.0 0.0 16.28999089631971 0.0 0.0 0.0 34.24959146834617" Properties=species:S:1:pos:R:3:initial_magmoms:R:1 pbc="T T T"
Si       2.03496309       0.82787409      -0.65170159       0.00000000
Si       0.65135565      -1.71304011       1.45437546       0.00000000
Si      -0.95923665       1.91006019       0.98046360       0.00000000
Si      -0.73968003      -0.66121110      -2.14587510       0.00000000
Si      -2.74943760      -1.55577645      -1.35631883       0.00000000
Si       2.49030117      -2.60700273       0.07274617       0.00000000
Si       1.48061439       2.35826976      -2.33445346       0.00000000
Si       3.16011339      -0.97637373      -1.59959381       0.00000000
Si      -0.33387984       1.29714012      -3.46280688       0.00000000
Si      -1.16177022      -3.26754594       1.49797522       0.00000000
