10
Lattice="16.28999089631971 0.0 0.0 0.0 16.28999089631971 0.0 0.0 0.0 34.24959146834617" Properties=species:S:1:pos:R:3:initial_magmoms:R:1 pbc="T T T"
Si      -0.00900348      -0.39021066       2.26828321       0.00000000
Si       2.27940431       0.30210687      -0.40212468       0.00000000
Si      -0.55415063      -2.11667373      -0.82616911       0.00000000
Si      -1.50478616       1.79114156      -0.25848181       0.00000000
Si       2.16876263       2.27286944      -1.61219767       0.00000000
Si      -2.91971927      -1.89899046      -0.76311557       0.00000000
Si      -0.39913499       3.65225777       0.62841186       0.00000000
Si       0.28369361       2.08709828      -3.09356183       0.00000000
Si       2.16597704      -0.13706406       3.15993757       0.00000000
Si       3.23864096      -1.60795332      -1.38258828       0.00000000
