10
Lattice="16.28999089631971 0.0 0.0 0.0 16.28999089631971 0.0 0.0 0.0 34.24959146834617" Properties=species:S:1:pos:R:3:initial_magmoms:R:1 pbc="T T T"
Si      -1.00743876       1.94039964      -0.84086219       0.00000000
Si      -1.77041349      -1.55160621       0.14809532       0.00000000
Si       1.51584966      -0.41011704      -1.78375397       0.00000000
Si       0.95897601      -0.11948715       2.24208226       0.00000000
Si      -0.41036139      -3.45942585      -0.37989668       0.00000000
Si       2.83846734      -2.03652693      -0.64115271       0.00000000
Si       2.34551565       1.88670780      -2.13933343       0.00000000
Si      -2.50130506      -1.32914997       2.57748870       0.00000000
Si       0.69053310      -2.58504381       2.81435900       0.00000000
Si       0.29879118       2.98260030      -2.48282277       0.00000000
