10
Lattice="16.28999089631971 0.0 0.0 0.0 16.28999089631971 0.0 0.0 0.0 34.24959146834617" Properties=species:S:1:pos:R:3:initial_magmoms:R:1 pbc="T T T"
Si      -1.12302120       1.22699116       1.62274655       0.00000000
Si       1.00743876      -1.94039964       0.84086219       0.00000000
Si       1.30622994       1.04220066      -1.64196058       0.00000000
Si      -2.17498053      -0.25314660      -0.89165436       0.00000000
Si       2.52328842      -2.35051668      -0.94289178       0.00000000
Si       0.11342727       0.43917093      -3.56206225       0.00000000
Si       3.35295441      -0.05369184      -1.29847124       0.00000000
Si      -3.42141218       0.72667802       0.95015270       0.00000000
Si      -0.76297473      -3.49200585       0.98895751       0.00000000
Si      -2.16597704       0.13706406      -3.15993757       0.00000000
