10
Lattice="16.28999089631971 0.0 0.0 0.0 16.28999089631971 0.0 0.0 0.0 34.24959146834617" Properties=species:S:1:pos:R:3:initial_magmoms:R:1 pbc="T T T"
Si      -1.35324288       1.35922131       1.36357975       0.00000000
Si       1.36361961      -1.35791811       1.36275776       0.00000000
Si      -1.37256282      -1.34087877      -1.37539586       0.00000000
Si       1.37974671       1.37477826      -1.37699874       0.00000000
Si       0.07133391      -2.58871232      -2.72603268       0.00000000
Si      -2.70868491       2.70848943       0.00547994       0.00000000
Si      -2.71067229      -2.71629886       0.00215773       0.00000000
Si      -2.71041165      -0.00092853       2.71948758       0.00000000
Si       2.71766070       2.71448415       0.00753491       0.00000000
Si       0.00425169       2.71451673       2.71993283       0.00000000
