10
Lattice="16.28999089631971 0.0 0.0 0.0 16.28999089631971 0.0 0.0 0.0 34.24959146834617" Properties=species:S:1:pos:R:3:initial_magmoms:R:1 pbc="T T T"
Si      -1.44389673       1.24783355       1.35063682       0.00000000
Si      -1.10910465      -1.73993883      -1.19245876       0.00000000
Si       1.31768181      -1.47876126       1.34350605       0.00000000
Si       1.17276597       1.55478602      -1.43767334       0.00000000
Si      -0.07133391       2.58871232       2.72603268       0.00000000
Si       2.64598470      -0.12866657       2.72870415       0.00000000
Si      -2.86946721       2.60470910      -0.19317808       0.00000000
Si      -2.78200620      -0.12758654       2.72819041       0.00000000
Si       0.71076528      -3.56112825      -1.49524693       0.00000000
Si       2.81577537       2.74403747      -0.15379788       0.00000000
