10
Lattice="16.28999089631971 0.0 0.0 0.0 16.28999089631971 0.0 0.0 0.0 34.24959146834617" Properties=species:S:1:pos:R:3:initial_magmoms:R:1 pbc="T T T"
Si      -0.02050911      -1.52928077       1.75906000       0.00000000
Si       0.37483290       2.27605509       0.39524051       0.00000000
Si       2.07023094      -0.67548603      -1.11461933       0.00000000
Si      -2.24422443      -0.32876478      -1.01108275       0.00000000
Si      -0.94998393       2.90175399      -1.52814913       0.00000000
Si      -0.57990771      -3.46260959       0.32513155       0.00000000
Si       3.64917177       0.48998691       0.17950221       0.00000000
Si      -2.70373275      -2.57136740      -0.22885590       0.00000000
Si       2.73851190       2.61843831       0.16189791       0.00000000
Si      -1.99734948      -1.46509817       3.01276700       0.00000000
