10
Lattice="16.28999089631971 0.0 0.0 0.0 16.28999089631971 0.0 0.0 0.0 34.24959146834617" Properties=species:S:1:pos:R:3:initial_magmoms:R:1 pbc="T T T"
Si      -1.25077878      -1.97280045      -0.26413300       0.00000000
Si      -0.40596309       0.91658943       2.14505311       0.00000000
Si       2.09903166      -1.19814579      -0.06726624       0.00000000
Si      -0.34520139       1.86839784      -1.52506666       0.00000000
Si      -1.33721352      -2.10948984      -2.67968953       0.00000000
Si       3.68163774       0.43952049      -0.63248756       0.00000000
Si      -0.43404705      -3.62226069       1.31669203       0.00000000
Si      -2.70552465       1.61885133       2.26482400       0.00000000
Si       1.06780950       1.64835252      -3.38238879       0.00000000
Si      -0.53126577      -0.81580320       3.80475499       0.00000000
