10
Lattice="16.28999089631971 0.0 0.0 0.0 16.28999089631971 0.0 0.0 0.0 34.24959146834617" Properties=species:S:1:pos:R:3:initial_magmoms:R:1 pbc="T T T"
Si      -2.21533316      -0.30535605       0.62060294       0.00000000
Si       1.61321499      -0.66950271       1.58733245       0.00000000
Si       0.35256447      -1.68474438      -1.62000658       0.00000000
Si       0.37592433       2.31438546      -0.52771800       0.00000000
Si       3.43386684       0.51310242       0.52357380       0.00000000
Si       2.61713511       2.16256266      -1.05725123       0.00000000
Si      -3.22938566       1.40844969      -0.64978361       0.00000000
Si       0.46320615      -3.65550695      -0.40993359       0.00000000
Si       1.65600882      -3.05247721       1.51016808       0.00000000
Si       2.39889798      -1.18369656      -2.70304777       0.00000000
