10
Lattice="16.28999089631971 0.0 0.0 0.0 16.28999089631971 0.0 0.0 0.0 34.24959146834617" Properties=species:S:1:pos:R:3:initial_magmoms:R:1 pbc="T T T"
Si       1.20098025      -0.12799053      -2.02726870       0.00000000
Si      -0.50355648      -1.92200823       1.28055869       0.00000000
Si      -2.12382504       0.89124219      -0.55398745       0.00000000
Si       0.55939860       1.93332882       1.43392845       0.00000000
Si       0.57990771       3.46260959      -0.32513155       0.00000000
Si       3.33340641       0.53888949      -1.13342236       0.00000000
Si      -1.41744177       1.99751142       2.68763544       0.00000000
Si       0.26205723      -1.33713207       3.42249509       0.00000000
Si       3.48817770      -0.61076097       1.05392902       0.00000000
Si      -3.23193600       0.93638178       1.55928202       0.00000000
