10
Lattice="16.28999089631971 0.0 0.0 0.0 16.28999089631971 0.0 0.0 0.0 34.24959146834617" Properties=species:S:1:pos:R:3:initial_magmoms:R:1 pbc="T T T"
Si      -1.35658233      -1.35543227       1.35672983       0.00000000
Si       1.35749457       1.35875607       1.35638733       0.00000000
Si      -1.35744570       1.35775261      -1.35748332       0.00000000
Si       1.35765747      -1.35715901      -1.35823681       0.00000000
Si      -2.71239903      -0.00286427       2.71359665       0.00000000
Si       0.00267156       2.71020053       2.71595987       0.00000000
Si      -2.71464705      -2.71427891       0.00023975       0.00000000
Si      -2.71440270       2.71458254      -0.00013700       0.00000000
Si       2.71507059      -2.71483277      -0.00037675       0.00000000
Si      -2.71591767       0.00048122      -2.71411039       0.00000000
