10
Lattice="16.28999089631971 0.0 0.0 0.0 16.28999089631971 0.0 0.0 0.0 34.24959146834617" Properties=species:S:1:pos:R:3:initial_magmoms:R:1 pbc="T T T"
Si      -1.35744570      -1.35678758       1.35628458       0.00000000
Si       1.35726651       1.35764118       1.35625033       0.00000000
Si      -1.35760860       1.35757602      -1.35762031       0.00000000
Si       1.35814617      -1.35825531      -1.35803131       0.00000000
Si       0.00112401       2.71306692       2.71397339       0.00000000
Si      -2.71262709      -0.00035838      -2.71517213       0.00000000
Si       0.00104256      -2.71328716      -2.71458989       0.00000000
Si      -2.71226871      -0.00534312       2.71585712       0.00000000
Si      -2.71433754       2.71420722      -0.00034250       0.00000000
Si       2.71221984       0.00553860       2.71719286       0.00000000
