10
Lattice="16.28999089631971 0.0 0.0 0.0 16.28999089631971 0.0 0.0 0.0 34.24959146834617" Properties=species:S:1:pos:R:3:initial_magmoms:R:1 pbc="T T T"
Si      -1.19280267      -0.60302974      -1.92010167       0.00000000
Si      -1.30622994      -1.04220066       1.64196058       0.00000000
Si       2.04672447      -1.09589250       0.34348934       0.00000000
Si      -0.04279383       2.38297450       0.07716437       0.00000000
Si      -1.30344435       1.36773283      -3.13017466       0.00000000
Si       1.21705848      -3.39271734       0.69906880       0.00000000
Si       3.17503503       0.35491675       1.97555179       0.00000000
Si      -1.65600882       3.05247721      -1.51016808       0.00000000
Si      -3.48121047      -1.29534726       0.75030622       0.00000000
Si      -0.23356602      -2.51308992      -2.90056527       0.00000000
