10
Lattice="16.28999089631971 0.0 0.0 0.0 16.28999089631971 0.0 0.0 0.0 34.24959146834617" Properties=species:S:1:pos:R:3:initial_magmoms:R:1 pbc="T T T"
Si       1.35762489      -1.35296595       1.36306600       0.00000000
Si      -1.35933534       1.36456443       1.36238101       0.00000000
Si       1.35208629       1.37228589      -1.37586851       0.00000000
Si      -1.35018036      -1.35842310      -1.39303441       0.00000000
Si       2.71391400      -2.70946683       0.00609643       0.00000000
Si      -0.00133578      -2.71107465       2.71921358       0.00000000
Si      -2.71841004      -2.71263849       0.00198648       0.00000000
Si       2.71238274       2.72002275       0.00195223       0.00000000
Si       2.71365336       0.00377928       2.71969308       0.00000000
Si      -2.71709055       0.00475668       2.71962458       0.00000000
