10
Lattice="16.28999089631971 0.0 0.0 0.0 16.28999089631971 0.0 0.0 0.0 34.24959146834617" Properties=species:S:1:pos:R:3:initial_magmoms:R:1 pbc="T T T"
Si      -1.35873261       1.35466011      -1.35553109       0.00000000
Si       1.35747828       1.35452979       1.35748332       0.00000000
Si      -1.35775521      -1.35980775       1.35724357       0.00000000
Si       1.35933534      -1.36456443      -1.36238101       0.00000000
Si      -2.71300176       2.71187775       0.00000000       0.00000000
Si       0.00013032       2.71204065       2.71452139       0.00000000
Si       2.71555929       2.71125873      -0.00089049       0.00000000
Si      -2.71448415      -0.00317655       2.71452139       0.00000000
Si       2.71482624      -0.00283446       2.71469264       0.00000000
Si      -2.71277370      -2.71774215      -0.00030825       0.00000000
