10
Lattice="16.28999089631971 0.0 0.0 0.0 16.28999089631971 0.0 0.0 0.0 34.24959146834617" Properties=species:S:1:pos:R:3:initial_magmoms:R:1 pbc="T T T"
Si       0.85735899       2.19172176      -0.12946353       0.00000000
Si      -1.91492208      -0.29616849       1.37608086       0.00000000
Si       1.62425961      -1.44151839       0.97347668       0.00000000
Si      -0.39620538      -0.27930834      -2.37178553       0.00000000
Si       0.05385474      -3.26551946       1.03998943       0.00000000
Si       2.46860289       1.78645914      -1.83475164       0.00000000
Si      -1.70735490       1.72486665      -2.72931722       0.00000000
Si       1.73868057       0.05103657      -3.28231143       0.00000000
Si      -1.85642469       1.64960685       2.89830480       0.00000000
Si      -3.80765718      -0.60631380      -0.03582509       0.00000000
