10
Lattice="16.28999089631971 0.0 0.0 0.0 16.28999089631971 0.0 0.0 0.0 34.24959146834617" Properties=species:S:1:pos:R:3:initial_magmoms:R:1 pbc="T T T"
Si       1.12813137      -1.20572064       1.69008129       0.00000000
Si      -0.83443896       2.12965686       0.61371877       0.00000000
Si      -1.43658252      -1.67257575      -0.90977241       0.00000000
Si       2.14291692       0.34130808      -1.27055780       0.00000000
Si       2.73937527      -1.61098326      -0.01520683       0.00000000
Si       0.64278711       3.56117319      -0.55641917       0.00000000
Si      -0.12543300      -3.67675074      -0.55224072       0.00000000
Si      -0.63710190       2.17359099       2.96392705       0.00000000
Si      -0.59987925       0.87374673      -3.58089954       0.00000000
Si      -2.18248533      -0.76391955      -3.01567821       0.00000000
