10
Lattice="16.28999089631971 0.0 0.0 0.0 16.28999089631971 0.0 0.0 0.0 34.24959146834617" Properties=species:S:1:pos:R:3:initial_magmoms:R:1 pbc="T T T"
Si       1.32999705      -1.28969559      -1.41045376       0.00000000
Si      -1.33408584      -1.35881406       1.36468258       0.00000000
Si       1.38039831       1.35786924       1.35755867       0.00000000
Si      -1.28532987       1.31163822      -1.57839330       0.00000000
Si       0.74904678       2.06187417      -2.80940107       0.00000000
Si       2.45812842       0.37546821      -2.60098804       0.00000000
Si      -2.67199983      -2.69851995      -0.01985107       0.00000000
Si      -2.67724521       2.72549619      -0.04085979       0.00000000
Si      -2.68835499      -0.00159642       2.72021367       0.00000000
Si       0.02464677      -2.71347417       2.72021367       0.00000000
