10
Lattice="16.28999089631971 0.0 0.0 0.0 16.28999089631971 0.0 0.0 0.0 34.24959146834617" Properties=species:S:1:pos:R:3:initial_magmoms:R:1 pbc="T T T"
Si       1.32083555      -1.35470898       1.44718990       0.00000000
Si      -1.40590586       1.35470898       1.43955566       0.00000000
Si      -0.70823381      -1.98237897      -1.31370002       0.00000000
Si       1.34121434       1.55937654      -1.43439565       0.00000000
Si       2.58176300      -2.70120780      -0.09626196       0.00000000
Si      -2.66408030      -2.68855047       0.05107987       0.00000000
Si       2.70374252       2.74103685       0.12844289       0.00000000
Si      -1.00547582      -0.27583857      -3.72463286       0.00000000
Si       2.67121139      -0.00871515       2.82842874       0.00000000
Si      -2.67163886       2.83768542       0.00876790       0.00000000
