10
Lattice="16.28999089631971 0.0 0.0 0.0 16.28999089631971 0.0 0.0 0.0 34.24959146834617" Properties=species:S:1:pos:R:3:initial_magmoms:R:1 pbc="T T T"
Si       1.68264297       1.20870334      -1.20285801       0.00000000
Si       1.31152419      -1.24745151       1.59638805       0.00000000
Si      -1.39551543       1.45479637       1.57682125       0.00000000
Si      -0.65407608      -1.99971709      -1.47747139       0.00000000
Si      -2.60887608      -2.60423899      -0.01708028       0.00000000
Si       2.68244172      -2.64558301       0.24535051       0.00000000
Si      -2.59395444       2.97328501       0.08934011       0.00000000
Si      -0.04566087      -2.61215593       2.97023241       0.00000000
Si       2.76495057       2.84661397       0.19730173       0.00000000
Si       2.66857893       0.10375264       2.97595209       0.00000000
