10
Lattice="16.28999089631971 0.0 0.0 0.0 16.28999089631971 0.0 0.0 0.0 34.24959146834617" Properties=species:S:1:pos:R:3:initial_magmoms:R:1 pbc="T T T"
Si       1.35602847       1.35674523       1.35662708       0.00000000
Si       1.35628911      -1.35650088      -1.35696957       0.00000000
Si      -1.35896067      -1.35810870       1.35614758       0.00000000
Si      -1.35762489       1.35296595      -1.36306600       0.00000000
Si       2.71170399      -2.71494885      -0.00013700       0.00000000
Si       2.71293660       2.71410948      -0.00195223       0.00000000
Si       2.71350961      -0.00035838       2.71380215       0.00000000
Si      -0.00213399       2.71469592       2.71400764       0.00000000
Si      -2.71606428      -2.71314055      -0.00041100       0.00000000
Si      -0.00146610      -2.71553634       2.71383640       0.00000000
