10
Lattice="16.28999089631971 0.0 0.0 0.0 16.28999089631971 0.0 0.0 0.0 34.24959146834617" Properties=species:S:1:pos:R:3:initial_magmoms:R:1 pbc="T T T"
Si       1.78050907      -1.09804016       0.96864749       0.00000000
Si      -1.09846728      -1.17882683      -1.70833633       0.00000000
Si       1.35847197       1.43213046      -1.61802010       0.00000000
Si      -1.26715023      -0.62696789       2.39726724       0.00000000
Si       3.05443757       0.88654578       1.25106978       0.00000000
Si      -1.94111640       1.62080124       2.52426480       0.00000000
Si      -2.10362544      -2.91372292      -0.55522044       0.00000000
Si      -2.74307310      -2.24567002       1.58329100       0.00000000
Si       2.98882960      -2.45744002      -0.46483572       0.00000000
Si       2.63898556       2.87682540      -0.11870915       0.00000000
