10
Lattice="16.28999089631971 0.0 0.0 0.0 16.28999089631971 0.0 0.0 0.0 34.24959146834617" Properties=species:S:1:pos:R:3:initial_magmoms:R:1 pbc="T T T"
Si       0.54237555      -0.56128824       2.21827878       0.00000000
Si      -0.60562962       2.27524059      -0.05805309       0.00000000
Si      -1.80600714      -1.18474238      -1.04444188       0.00000000
Si       2.33085532      -0.26533152      -0.61680124       0.00000000
Si      -0.88166367       1.09452510      -2.87313133       0.00000000
Si       0.63397422       3.01363371       1.83478589       0.00000000
Si       2.73704647       1.88240724      -1.41810513       0.00000000
Si      -2.43688626      -2.70400058       0.80976354       0.00000000
Si       1.64802672       1.29982797       3.10517245       0.00000000
Si      -1.30821732      -0.19445373       3.59768185       0.00000000
