10
Lattice="16.28999089631971 0.0 0.0 0.0 16.28999089631971 0.0 0.0 0.0 34.24959146834617" Properties=species:S:1:pos:R:3:initial_magmoms:R:1 pbc="T T T"
Si       1.36029645       1.34773686       1.37782074       0.00000000
Si      -1.35208629      -1.37228589       1.37586851       0.00000000
Si       1.45819935      -1.33889139      -1.39668542       0.00000000
Si      -1.40607135       1.41605712      -1.39241792       0.00000000
Si       2.71637379       2.70436806      -0.00820963       0.00000000
Si      -2.70226665      -2.73070899      -0.01716590       0.00000000
Si       0.00413766       2.70353727       2.73735903       0.00000000
Si      -2.73606840       2.70575271       0.01803584       0.00000000
Si      -2.71142163      -0.00772146       2.73824952       0.00000000
Si       2.71847520      -0.01114236       2.73698228       0.00000000
