10
Lattice="16.28999089631971 0.0 0.0 0.0 16.28999089631971 0.0 0.0 0.0 34.24959146834617" Properties=species:S:1:pos:R:3:initial_magmoms:R:1 pbc="T T T"
Si      -1.35817875      -1.35666378      -1.35676407       0.00000000
Si       1.35779631      -1.35483930       1.35933280       0.00000000
Si       1.35742567       1.35819504      -1.35693532       0.00000000
Si      -1.35679410       1.35571896       1.36173027       0.00000000
Si      -0.00001629      -2.71461447      -2.71414464       0.00000000
Si       2.71533516      -2.71342530      -0.00010275       0.00000000
Si       2.71517389       0.00048870      -2.71424739       0.00000000
Si      -2.71588509      -2.71357191      -0.00034250       0.00000000
Si      -2.71552671       0.00070047      -2.71397339       0.00000000
Si       2.71391793       2.71588509       0.00061649       0.00000000
