10
Lattice="16.28999089631971 0.0 0.0 0.0 16.28999089631971 0.0 0.0 0.0 34.24959146834617" Properties=species:S:1:pos:R:3:initial_magmoms:R:1 pbc="T T T"
Si       1.23228963      -1.41289686       1.38882171       0.00000000
Si      -1.33652934      -1.36878354      -1.37491637       0.00000000
Si       1.38219873       1.34205165      -1.37618360       0.00000000
Si      -1.44365238       1.35490446       1.59668260       0.00000000
Si      -2.68512957       2.67682167      -0.01037763       0.00000000
Si       2.51280322       0.03179808       2.88813266       0.00000000
Si       2.74092838       2.67445962      -0.00900765       0.00000000
Si      -2.70135441      -2.72051634       0.01119962       0.00000000
Si      -2.69148267      -0.01668096      -2.73585890       0.00000000
Si       0.02440242       2.69689095      -2.73551640       0.00000000
