10
Lattice="16.28999089631971 0.0 0.0 0.0 16.28999089631971 0.0 0.0 0.0 34.24959146834617" Properties=species:S:1:pos:R:3:initial_magmoms:R:1 pbc="T T T"
Si       1.15222428       1.78768089       1.08732239       0.00000000
Si      -1.24147719       1.32191721      -1.60706023       0.00000000
Si      -1.27892790      -1.27347075       1.69032103       0.00000000
Si       1.44365238      -1.35490446      -1.59668260       0.00000000
Si      -2.53620639       2.66681961      -0.20813488       0.00000000
Si      -2.59786404      -2.65709448       0.05096342       0.00000000
Si       2.88599718       0.80049060       2.38894459       0.00000000
Si       2.67594201      -2.76780132      -0.20786089       0.00000000
Si      -0.75875562       3.64651650       1.19733214       0.00000000
Si       2.80578960       2.71236645      -0.32773452       0.00000000
