10
Lattice="16.28999089631971 0.0 0.0 0.0 16.28999089631971 0.0 0.0 0.0 34.24959146834617" Properties=species:S:1:pos:R:3:initial_magmoms:R:1 pbc="T T T"
Si      -0.37204731       2.13131844       0.80808531       0.00000000
Si       1.01405250      -1.71380574       1.27038656       0.00000000
Si      -1.23960384      -0.73839312      -1.89283898       0.00000000
Si       0.96816357       0.57502071      -2.16053394       0.00000000
Si      -2.90172141      -1.05371865       1.34231074       0.00000000
Si      -3.29927886      -0.27328104      -0.86815913       0.00000000
Si       3.22938566      -1.40844969       0.64978361       0.00000000
Si      -0.63397422      -3.01363371      -1.83478589       0.00000000
Si      -0.09159867      -3.57492195       0.38349289       0.00000000
Si      -2.17179909       0.68170392       2.78987053       0.00000000
