10
Lattice="16.28999089631971 0.0 0.0 0.0 16.28999089631971 0.0 0.0 0.0 34.24959146834617" Properties=species:S:1:pos:R:3:initial_magmoms:R:1 pbc="T T T"
Si       1.44335006       0.59116410       1.74508616       0.00000000
Si      -0.30820680       2.29506552      -0.55652192       0.00000000
Si      -1.77800463      -1.30688154       0.91371111       0.00000000
Si       1.40043405      -1.66944807      -0.99902689       0.00000000
Si       1.01968884      -1.46463390       2.88162524       0.00000000
Si       1.95057342      -2.64989430       1.08564416       0.00000000
Si      -3.38488281      -0.74702682      -0.65132484       0.00000000
Si      -2.63322963       2.73523761       0.13607370       0.00000000
Si      -0.73274049       2.37711825      -2.87224084       0.00000000
Si      -2.33974899      -0.38138148       3.07201882       0.00000000
