10
Lattice="16.28999089631971 0.0 0.0 0.0 16.28999089631971 0.0 0.0 0.0 34.24959146834617" Properties=species:S:1:pos:R:3:initial_magmoms:R:1 pbc="T T T"
Si       1.69445322       0.59246730       1.46006090       0.00000000
Si       1.37461536      -1.41854949      -1.25072728       0.00000000
Si      -1.44241434      -1.06816788       1.53736227       0.00000000
Si      -0.48265641       1.60891443      -1.68484109       0.00000000
Si       2.87678142       0.52566201      -1.87523468       0.00000000
Si       1.60015041      -1.06823304       3.05064707       0.00000000
Si      -0.20140956      -2.84993550      -2.35414699       0.00000000
Si       3.67027451       0.69475221       0.33263222       0.00000000
Si      -2.55994092       2.57321727      -1.12379822       0.00000000
Si      -3.53885589      -0.03311757       1.46673957       0.00000000
