10
Lattice="16.28999089631971 0.0 0.0 0.0 16.28999089631971 0.0 0.0 0.0 34.24959146834617" Properties=species:S:1:pos:R:3:initial_magmoms:R:1 pbc="T T T"
Si       1.97582129       0.10228491      -1.12742868       0.00000000
Si      -0.35235270       1.90571823       1.21781340       0.00000000
Si      -0.09430281      -1.66070034       1.59058617       0.00000000
Si      -1.69445322      -0.59246730      -1.46006090       0.00000000
Si      -0.31983786      -2.01101679      -2.71078818       0.00000000
Si       1.18232820      -0.06680529      -3.33529558       0.00000000
Si      -3.13686756      -1.66063518       0.07730137       0.00000000
Si      -1.62831582       3.17422053      -0.27957957       0.00000000
Si      -2.49051294      -1.15802352       2.31702041       0.00000000
Si      -1.84787244       1.10952819       2.87850852       0.00000000
