10
Lattice="16.28999089631971 0.0 0.0 0.0 16.28999089631971 0.0 0.0 0.0 34.24959146834617" Properties=species:S:1:pos:R:3:initial_magmoms:R:1 pbc="T T T"
Si      -1.35645487      -1.35705311       1.35813406       0.00000000
Si      -1.35748114       1.35710361      -1.35717507       0.00000000
Si       1.35698902      -1.35746688      -1.35738057       0.00000000
Si       1.35787031       1.35829278       1.35686682       0.00000000
Si      -2.71350961       0.00035838      -2.71380215       0.00000000
Si      -0.00180561      -2.71459047      -2.71393914       0.00000000
Si       2.71559620       0.00053757      -2.71376790       0.00000000
Si       2.71396720       2.71551042      -0.00003425       0.00000000
Si       2.71134451       0.00097740       2.71815185       0.00000000
Si      -2.71497571      -2.71517796       0.00003425       0.00000000
