10
Lattice="16.28999089631971 0.0 0.0 0.0 16.28999089631971 0.0 0.0 0.0 34.24959146834617" Properties=species:S:1:pos:R:3:initial_magmoms:R:1 pbc="T T T"
Si       1.21380048      -0.67945590      -1.90921029       0.00000000
Si      -1.69989408       1.59958026      -0.42514042       0.00000000
Si      -1.41092577      -1.69567497       0.97837438       0.00000000
Si       1.57294611       1.73763801       1.33227560       0.00000000
Si       0.84292605       3.67082118       0.03764032       0.00000000
Si      -3.73651875       0.67541598       0.18604388       0.00000000
Si       2.77817805       1.08276372      -2.35938718       0.00000000
Si       2.64487698      -2.45144952      -1.42745527       0.00000000
Si      -3.51611505      -1.70258193      -0.12346985       0.00000000
Si      -2.01363948       1.90553904      -2.75798414       0.00000000
