10
Lattice="16.28999089631971 0.0 0.0 0.0 16.28999089631971 0.0 0.0 0.0 34.24959146834617" Properties=species:S:1:pos:R:3:initial_magmoms:R:1 pbc="T T T"
Si       1.34202205      -1.33944525       1.37082354       0.00000000
Si      -1.48758651      -1.02830625      -1.53438054       0.00000000
Si       1.78279456       0.92093886      -1.27443383       0.00000000
Si      -1.37091753       1.39813149       1.35103754       0.00000000
Si       2.65246227      -2.65903299      -0.09553244       0.00000000
Si      -2.68244172       2.64558301      -0.24535051       0.00000000
Si      -2.61210150      -2.74597272      -0.17700884       0.00000000
Si      -3.33651780       0.64586592      -1.72282190       0.00000000
Si       2.72288557       2.68238863      -0.03824997       0.00000000
Si      -0.01585017      -2.68112223       2.73193732       0.00000000
