10
Lattice="16.28999089631971 0.0 0.0 0.0 16.28999089631971 0.0 0.0 0.0 34.24959146834617" Properties=species:S:1:pos:R:3:initial_magmoms:R:1 pbc="T T T"
Si      -1.34654769      -1.34149779      -1.37203940       0.00000000
Si       1.36717083       1.37459907      -1.36765545       0.00000000
Si      -1.34428338       1.36694277       1.40680276       0.00000000
Si       1.34838846      -1.33674111       1.46632858       0.00000000
Si       0.47050407       2.42088948       2.45764931       0.00000000
Si       2.20589406       0.71485407       2.65725604       0.00000000
Si       2.71902906      -2.66623317      -0.00996664       0.00000000
Si      -2.69042382      -2.70355356      -0.00321946       0.00000000
Si       0.00765630      -2.69679321      -2.72832398       0.00000000
Si      -2.70531288       0.01562211      -2.72852948       0.00000000
