10
Lattice="16.28999089631971 0.0 0.0 0.0 16.28999089631971 0.0 0.0 0.0 34.24959146834617" Properties=species:S:1:pos:R:3:initial_magmoms:R:1 pbc="T T T"
Si       1.21709106       2.02694841      -0.11833240       0.00000000
Si      -2.34936009       0.39607506      -0.14758157       0.00000000
Si       1.28446650      -1.68466293       1.15167741       0.00000000
Si       0.15423372      -0.74481138      -2.30215608       0.00000000
Si      -2.81235447      -1.87530480      -0.54946650       0.00000000
Si      -1.62957015      -2.89712763       1.19483192       0.00000000
Si      -0.32011479       1.27115757      -3.37156592       0.00000000
Si       3.42904500       1.20684465      -0.10391332       0.00000000
Si       3.46061502      -1.07383680       0.59840920       0.00000000
Si      -2.50413138       1.54572552      -2.33493295       0.00000000
