10
Lattice="16.28999089631971 0.0 0.0 0.0 16.28999089631971 0.0 0.0 0.0 34.24959146834617" Properties=species:S:1:pos:R:3:initial_magmoms:R:1 pbc="T T T"
Si      -0.73002006       1.93318317      -1.29463528       0.00000000
Si      -1.34328969       0.61664166       2.07371117       0.00000000
Si       2.54451333      -0.38918439      -0.00448670       0.00000000
Si      -1.57294611      -1.73763801      -1.33227560       0.00000000
Si       1.59716382      -2.25774513       1.93965820       0.00000000
Si      -3.27284019      -0.13805775      -1.75741602       0.00000000
Si      -3.06517527       2.11336686      -0.62437040       0.00000000
Si      -0.03971502       1.36875096      -3.60144930       0.00000000
Si       1.20523194      -0.65487429      -3.69166278       0.00000000
Si       1.92709138       2.56588677       2.33365788       0.00000000
