10
Lattice="16.28999089631971 0.0 0.0 0.0 16.28999089631971 0.0 0.0 0.0 34.24959146834617" Properties=species:S:1:pos:R:3:initial_magmoms:R:1 pbc="T T T"
Si      -2.20232492       0.68970231      -0.03832531       0.00000000
Si       1.33851672       1.11099429      -1.61408140       0.00000000
Si       0.44582472       0.60106842       2.30845800       0.00000000
Si       0.64931940      -1.87333371      -1.52996436       0.00000000
Si       3.52320120       0.21053196      -1.06721787       0.00000000
Si       1.72229283      -1.23282720       3.05242805       0.00000000
Si      -3.52884473      -1.19578374      -0.43342882       0.00000000
Si       0.43969968      -3.03422427       2.24790469       0.00000000
Si      -2.75246428       1.67014854      -2.12299636       0.00000000
Si       0.53686953       0.21455559      -3.82177705       0.00000000
