10
Lattice="16.28999089631971 0.0 0.0 0.0 16.28999089631971 0.0 0.0 0.0 34.24959146834617" Properties=species:S:1:pos:R:3:initial_magmoms:R:1 pbc="T T T"
Si       1.35649226       1.35769005       1.35755182       0.00000000
Si      -1.35742567      -1.35819504       1.35693532       0.00000000
Si       1.35774822      -1.35770634      -1.35731207       0.00000000
Si      -1.35820759       1.35824391      -1.35710657       0.00000000
Si       2.71400638      -2.71440270      -0.00006850       0.00000000
Si       0.00037064      -2.71303434       2.71626812       0.00000000
Si       2.71464169       2.71507059       0.00020550       0.00000000
Si      -2.71511572       2.71490769      -0.00010275       0.00000000
Si      -2.71487137      -0.00076563      -2.71541188       0.00000000
Si      -2.71560442      -2.71485882       0.00017125       0.00000000
