10
Lattice="16.28999089631971 0.0 0.0 0.0 16.28999089631971 0.0 0.0 0.0 34.24959146834617" Properties=species:S:1:pos:R:3:initial_magmoms:R:1 pbc="T T T"
Si      -1.34718041      -1.34280099      -1.38056755       0.00000000
Si      -1.34651252       1.38851073       1.37721109       0.00000000
Si       1.27468598      -1.43754363       1.39967884       0.00000000
Si       1.37130197       1.37318184      -1.37501912       0.00000000
Si       2.57094644      -0.08811261       2.78099988       0.00000000
Si      -2.70807959      -2.67063147      -0.01791255       0.00000000
Si      -2.68017482       2.72494233      -0.03568809       0.00000000
Si       2.72684174      -2.69390988      -0.00989814       0.00000000
Si       0.13585045       2.87277408       2.54008812       0.00000000
Si       0.01152355      -2.70197343      -2.73681788       0.00000000
