10
Lattice="16.28999089631971 0.0 0.0 0.0 16.28999089631971 0.0 0.0 0.0 34.24959146834617" Properties=species:S:1:pos:R:3:initial_magmoms:R:1 pbc="T T T"
Si       2.33303751       0.33974424       0.04277776       0.00000000
Si      -0.12406464       1.34586351      -2.06336779       0.00000000
Si       0.30792987      -2.46128868       0.18707137       0.00000000
Si      -1.58236173       1.10372895       1.63377493       0.00000000
Si      -1.82584836       2.53539189      -1.11338634       0.00000000
Si      -2.34338166      -1.78660575      -2.19940724       0.00000000
Si       2.95288830      -1.18381059      -1.93856221       0.00000000
Si      -1.42032510      -0.00356751      -3.44468884       0.00000000
Si      -0.19787463       1.47343050       3.51548278       0.00000000
Si      -1.63509246       3.36235374       1.01707644       0.00000000
