10
Lattice="16.28999089631971 0.0 0.0 0.0 16.28999089631971 0.0 0.0 0.0 34.24959146834617" Properties=species:S:1:pos:R:3:initial_magmoms:R:1 pbc="T T T"
Si      -1.35347420       1.35731538      -1.36128502       0.00000000
Si      -1.34795026      -1.35076191       1.37858108       0.00000000
Si       1.36086660      -1.35926204      -1.36025753       0.00000000
Si       1.35539316       1.36480878       1.38834222       0.00000000
Si       0.25456383      -2.57602013       2.72668000       0.00000000
Si      -2.71101305       2.71590138      -0.00184948       0.00000000
Si      -2.71134451      -0.00097740      -2.71815185       0.00000000
Si      -2.70888758      -2.72091609      -0.00356196       0.00000000
Si       0.00262269       2.71453302      -2.71818610       0.00000000
Si       2.71881729       2.71487511       0.00102749       0.00000000
