10
Lattice="16.28999089631971 0.0 0.0 0.0 16.28999089631971 0.0 0.0 0.0 34.24959146834617" Properties=species:S:1:pos:R:3:initial_magmoms:R:1 pbc="T T T"
Si      -0.73331227       1.77135831      -1.19089321       0.00000000
Si       1.70178372      -1.18952838      -0.94998145       0.00000000
Si       0.19075590       0.82696185       2.13046278       0.00000000
Si       0.24348663      -1.43166294       2.74716127       0.00000000
Si      -2.07707469       1.40773293       1.95154281       0.00000000
Si      -2.21567525       0.28709496      -2.35377024       0.00000000
Si       1.82584836      -2.53539189       1.11338634       0.00000000
Si       0.40552326      -2.53895940      -2.33130249       0.00000000
Si      -1.94163279       3.13075818       0.24258999       0.00000000
Si      -3.66584363      -0.47301273       1.23404772       0.00000000
