10
Lattice="10.86 0.0 0.0 0.0 10.86 0.0 0.0 0.0 10.86" Properties=species:S:1:pos:R:3:initial_magmoms:R:1 pbc="T T T"
Si       1.33169664      -1.19326422       1.38533418       0.00000000
Si       1.28119764       1.42676508      -1.21776438       0.00000000
Si      -1.21150902      -1.41688248      -1.31436408       0.00000000
Si      -1.42422384       1.36955460       1.25985774       0.00000000
Si       0.00827532      -2.63723154      -2.68622100       0.00000000
Si      -2.70672468      -2.63723154       0.02877900       0.00000000
Si      -2.70672468       0.07776846      -2.68622100       0.00000000
Si       2.72327532       0.07776846      -2.68622100       0.00000000
Si      -2.70672468       0.07776846       2.74377900       0.00000000
Si       0.00827532       2.79276846      -2.68622100       0.00000000
