10
Lattice="10.86 0.0 0.0 0.0 10.86 0.0 0.0 0.0 10.86" Properties=species:S:1:pos:R:3:initial_magmoms:R:1 pbc="T T T"
Si      -1.28250084       1.42321386      -1.23107874       0.00000000
Si       1.42422384      -1.36955460      -1.25985774       0.00000000
Si      -1.28250084      -1.29178614       1.48392126       0.00000000
Si       1.43249916       1.42321386       1.48392126       0.00000000
Si       2.70542148       0.05721048      -2.47762212       0.00000000
Si      -2.64000084       0.06571386      -2.58857874       0.00000000
Si      -2.64000084      -2.64928614       0.12642126       0.00000000
Si       2.75592048      -2.56281882       0.12547644       0.00000000
Si       0.21271482      -2.78643708      -2.57422182       0.00000000
Si       0.07499916       2.78071386      -2.58857874       0.00000000
