10
Lattice="10.86 0.0 0.0 0.0 10.86 0.0 0.0 0.0 10.86" Properties=species:S:1:pos:R:3:initial_magmoms:R:1 pbc="T T T"
Si       1.23561822       1.25578524       1.32021762       0.00000000
Si      -1.47938178       1.25578524      -1.39478238       0.00000000
Si      -1.47938178      -1.45921476       1.32021762       0.00000000
Si       2.43057660       2.64966624      -0.01112064       0.00000000
Si       2.59311822      -0.10171476       2.67771762       0.00000000
Si      -0.12188178       2.61328524       2.67771762       0.00000000
Si      -0.26025990       2.55898524      -2.87011338       0.00000000
Si      -2.83688178       2.61328524      -0.03728238       0.00000000
Si       2.66567388      -2.82190584      -0.10219260       0.00000000
Si      -0.12188178      -2.81671476       2.67771762       0.00000000
