10
Lattice="10.86 0.0 0.0 0.0 10.86 0.0 0.0 0.0 10.86" Properties=species:S:1:pos:R:3:initial_magmoms:R:1 pbc="T T T"
Si       1.35750000       1.35750000       1.35750000       0.00000000
Si      -1.35750000       1.35750000      -1.35750000       0.00000000
Si      -1.35750000      -1.35750000       1.35750000       0.00000000
Si       1.35750000      -1.35750000      -1.35750000       0.00000000
Si       2.49606240      -2.49672486       0.22224990       0.00000000
Si      -2.41398252       2.67811944       0.08626098       0.00000000
Si      -0.36433128      -2.73436338      -2.38144596       0.00000000
Si       0.11975322       2.73670914       2.51504568       0.00000000
Si      -0.00928530      -2.64956850       2.66936628       0.00000000
Si      -0.18291498       2.65708362      -2.67687054       0.00000000
