10
Lattice="10.86 0.0 0.0 0.0 10.86 0.0 0.0 0.0 10.86" Properties=species:S:1:pos:R:3:initial_magmoms:R:1 pbc="T T T"
Si      -1.27804824      -1.77545796      -0.67529652       0.00000000
Si      -1.23974502       0.89803512       1.71829092       0.00000000
Si      -0.11174940       1.87603242      -1.37097726       0.00000000
Si       1.25568750      -1.71686826       1.75348818       0.00000000
Si      -2.93656572      -0.38107740      -2.11905750       0.00000000
Si      -1.63232316       1.01551860      -3.17253180       0.00000000
Si      -0.22156572      -3.09607740      -2.11905750       0.00000000
Si      -2.93656572       2.33392260       0.59594250       0.00000000
Si       0.95301930      -1.79649378      -3.43842804       0.00000000
Si      -1.49761572       3.65002428      -0.68710134       0.00000000
