10
Lattice="16.28999089631971 0.0 0.0 0.0 16.28999089631971 0.0 0.0 0.0 34.33025523377368" Properties=species:S:1:pos:R:3:initial_magmoms:R:1 pbc="T T T"
Si      -1.54643806       1.76189382      -0.15469222       0.00000000
Si       0.96344436      -0.00625536       2.15295450       0.00000000
Si      -1.15622740      -2.09777733      -0.05334925       0.00000000
Si       1.54793607       0.76227426      -1.67672493       0.00000000
Si      -0.12697403       3.64932557      -0.24535847       0.00000000
Si       2.27275962      -1.99081719       2.07835481       0.00000000
Si      -3.29357314       1.38838041       1.44015501       0.00000000
Si       2.35043034       1.85106528       2.45207418       0.00000000
Si       0.95666283       3.08306073      -2.17770663       0.00000000
Si      -2.59119721       1.94341329      -2.23922648       0.00000000
