10
Lattice="16.28999089631971 0.0 0.0 0.0 16.28999089631971 0.0 0.0 0.0 34.33025523377368" Properties=species:S:1:pos:R:3:initial_magmoms:R:1 pbc="T T T"
Si       2.11483296      -0.09063756       1.02259588       0.00000000
Si      -1.65123585      -0.72021348       1.51980125       0.00000000
Si       0.51640929      -1.70166969      -1.54846703       0.00000000
Si      -0.32213475       2.21587983      -0.86268547       0.00000000
Si      -3.41470996       0.58007061       0.73006762       0.00000000
Si       1.57460769       3.31103277      -0.06773363       0.00000000
Si      -3.43837007      -0.05668920      -1.64383653       0.00000000
Si       2.72811888      -1.39950648      -2.29175180       0.00000000
Si       3.48133590      -1.60125813      -0.11050915       0.00000000
Si       3.36111570       1.82838960       0.29558366       0.00000000
