10
Lattice="16.28999089631971 0.0 0.0 0.0 16.28999089631971 0.0 0.0 0.0 34.33025523377368" Properties=species:S:1:pos:R:3:initial_magmoms:R:1 pbc="T T T"
Si      -0.16459416      -2.06384526      -1.15418383       0.00000000
Si       1.40623425       1.68935512      -0.89272446       0.00000000
Si      -2.19307334       1.00515085      -0.04239789       0.00000000
Si      -0.27437247      -0.42710751       2.62152842       0.00000000
Si      -1.99316621      -2.69977428       0.16457934       0.00000000
Si      -3.40474751      -0.97780725      -0.37001170       0.00000000
Si       0.66109707       3.57836633       0.31628482       0.00000000
Si      -2.08934725      -1.96687089       2.55667853       0.00000000
Si       3.60087192       1.43822359      -0.10343712       0.00000000
Si       1.49674149      -3.65417280      -0.77984651       0.00000000
