10
Lattice="16.28999089631971 0.0 0.0 0.0 16.28999089631971 0.0 0.0 0.0 34.33025523377368" Properties=species:S:1:pos:R:3:initial_magmoms:R:1 pbc="T T T"
Si      -1.34806266       1.34944090      -1.35422634       0.00000000
Si       1.35632169       1.35627944       1.35553089       0.00000000
Si      -1.35648459      -1.35824448       1.35559955       0.00000000
Si       1.35514881      -1.35975945      -1.36143569       0.00000000
Si      -2.69293248      -0.01663266      -2.72717983       0.00000000
Si      -0.00345348      -2.69993775      -2.72331081       0.00000000
Si      -0.00013032       2.71390433       2.71243498       0.00000000
Si       2.71492398      -0.00105332       2.71246931       0.00000000
Si      -2.71313208      -2.71448472      -0.00284941       0.00000000
Si       2.71674846       2.71087439      -0.00477191       0.00000000
