10
Lattice="16.28999089631971 0.0 0.0 0.0 16.28999089631971 0.0 0.0 0.0 34.33025523377368" Properties=species:S:1:pos:R:3:initial_magmoms:R:1 pbc="T T T"
Si       1.34172585       1.35607897      -1.37973373       0.00000000
Si      -1.37013561      -1.35853344      -1.37966507       0.00000000
Si      -1.17993357       1.52984440       1.42831107       0.00000000
Si       1.42788366      -1.30891225       1.44815397       0.00000000
Si      -2.50357752       0.15131944       2.81988874       0.00000000
Si       2.70150102      -2.71167154      -0.01675317       0.00000000
Si      -2.72173320      -2.71608613      -0.01132899       0.00000000
Si       2.71068858       2.72748520      -0.01225591       0.00000000
Si       2.70303228       0.00042191      -2.73856032       0.00000000
Si      -0.01198944      -2.71466890      -2.73910961       0.00000000
