10
Lattice="16.28999089631971 0.0 0.0 0.0 16.28999089631971 0.0 0.0 0.0 34.33025523377368" Properties=species:S:1:pos:R:3:initial_magmoms:R:1 pbc="T T T"
Si       1.09182096       1.17338499       1.68214912       0.00000000
Si      -0.65111130      -2.23040141       0.46654843       0.00000000
Si       1.50715080      -0.55973906      -1.78932823       0.00000000
Si      -1.91816379       1.41301089      -0.46290942       0.00000000
Si      -3.58595028      -0.00649971       0.55367867       0.00000000
Si       2.94993981      -0.21483252       2.23411127       0.00000000
Si      -2.71696023      -2.01320684       1.52433284       0.00000000
Si       0.03863988      -1.73343258      -3.35183634       0.00000000
Si      -0.43354206       1.24077672       3.57632201       0.00000000
Si       2.39124168       2.96362341       0.63445780       0.00000000
