10
Lattice="16.28999089631971 0.0 0.0 0.0 16.28999089631971 0.0 0.0 0.0 34.33025523377368" Properties=species:S:1:pos:R:3:initial_magmoms:R:1 pbc="T T T"
Si       1.35065277      -1.34685720       1.36171033       0.00000000
Si      -1.36358703      -1.35501849      -1.35854852       0.00000000
Si      -1.36487394       1.36733373       1.35820865       0.00000000
Si       1.36694277       1.37042883      -1.38829570       0.00000000
Si      -2.50574246       0.13561425      -2.78924897       0.00000000
Si       2.70146844      -2.69988831      -0.00346736       0.00000000
Si      -0.00705357      -2.70620883       2.71741287       0.00000000
Si       2.70848943       0.00851967       2.71741287       0.00000000
Si      -2.73175970      -2.69581581       0.00418829       0.00000000
Si       2.70989037       2.71858923       0.00188817       0.00000000
