10
Lattice="16.28999089631971 0.0 0.0 0.0 16.28999089631971 0.0 0.0 0.0 34.33025523377368" Properties=species:S:1:pos:R:3:initial_magmoms:R:1 pbc="T T T"
Si      -0.97288767      -1.65789846      -1.35645780       0.00000000
Si      -1.48727700      -0.05492988       1.85884704       0.00000000
Si      -0.13095531       2.10447252      -1.18652294       0.00000000
Si       2.47234959      -0.23578146      -0.08380020       0.00000000
Si       0.32009850       0.26200836       3.32495574       0.00000000
Si       0.98241732       1.13202468      -3.03053930       0.00000000
Si       0.01011609      -0.99667107      -3.41006049       0.00000000
Si       1.06984575       3.40917120       0.86302877       0.00000000
Si       1.80748953       2.02066047       2.58105302       0.00000000
Si      -2.71999017      -2.07891351       1.69265418       0.00000000
