10
Lattice="16.28999089631971 0.0 0.0 0.0 16.28999089631971 0.0 0.0 0.0 34.33025523377368" Properties=species:S:1:pos:R:3:initial_magmoms:R:1 pbc="T T T"
Si      -1.10159496       1.88799471       0.82801189       0.00000000
Si      -0.94056831      -0.38913552      -2.12518131       0.00000000
Si       2.33750097       0.36561276       0.00614512       0.00000000
Si      -0.01910817      -1.56667446       1.79022082       0.00000000
Si      -0.34837794       1.68624306       3.00925453       0.00000000
Si       3.28867407      -1.61067375      -0.84116038       0.00000000
Si       3.01009878       0.21375738       2.25889773       0.00000000
Si      -2.98774890       0.81990828      -2.26682802       0.00000000
Si      -1.13248080      -0.59422662       3.63423718       0.00000000
Si      -1.76858901      -2.71197549      -2.11295973       0.00000000
