10
Lattice="16.28999089631971 0.0 0.0 0.0 16.28999089631971 0.0 0.0 0.0 34.33025523377368" Properties=species:S:1:pos:R:3:initial_magmoms:R:1 pbc="T T T"
Si      -0.15831111       1.26604414      -1.95943474       0.00000000
Si      -1.87787929      -0.97286323       1.02448405       0.00000000
Si       1.61208121      -1.60919692      -0.71544292       0.00000000
Si       0.86349055       1.60381729       1.56546051       0.00000000
Si       2.64916777       0.20014057       2.17327802       0.00000000
Si       1.62314212       2.73212785      -1.33915534       0.00000000
Si       3.50882365      -0.51404398       0.07950892       0.00000000
Si      -1.01609201       1.74058813       2.98615026       0.00000000
Si      -1.48049401      -3.24500614       0.87731016       0.00000000
Si       1.44652594      -1.65915835      -3.06294708       0.00000000
