10
Lattice="16.28999089631971 0.0 0.0 0.0 16.28999089631971 0.0 0.0 0.0 34.33025523377368" Properties=species:S:1:pos:R:3:initial_magmoms:R:1 pbc="T T T"
Si       0.73764378      -1.38851073       1.71802425       0.00000000
Si      -1.71160659       1.48053294       0.62127498       0.00000000
Si       1.97130177       1.39993002      -0.15936113       0.00000000
Si      -1.20080106      -1.30469868      -2.04955171       0.00000000
Si      -0.41669820       0.97577100      -2.67453436       0.00000000
Si      -1.78320114       2.48639157      -1.54142932       0.00000000
Si       1.88193483       1.38201102      -2.51702706       0.00000000
Si      -1.06984575      -3.40917120      -0.86302877       0.00000000
Si       2.56702707      -2.58844842       0.77366706       0.00000000
Si       0.87110775       0.07446159       3.65318749       0.00000000
