10
Lattice="16.28999089631971 0.0 0.0 0.0 16.28999089631971 0.0 0.0 0.0 34.33025523377368" Properties=species:S:1:pos:R:3:initial_magmoms:R:1 pbc="T T T"
Si       1.35648459       1.35824448      -1.35559955       0.00000000
Si       1.35658233      -1.35759231       1.35669811       0.00000000
Si      -1.35664749      -1.35624024      -1.35844896       0.00000000
Si      -1.35852084       1.35745702       1.35714441       0.00000000
Si       0.00842193       2.70768537      -2.70982588       0.00000000
Si       2.71280628       2.71452392      -0.00006866       0.00000000
Si       2.71480995      -0.00003258       2.71377386       0.00000000
Si      -0.00073305       2.71544104       2.71322458       0.00000000
Si       2.71163340      -0.00151497      -2.71703524       0.00000000
Si       2.71389771      -2.71502172      -0.00030897       0.00000000
