10
Lattice="16.28999089631971 0.0 0.0 0.0 16.28999089631971 0.0 0.0 0.0 34.33025523377368" Properties=species:S:1:pos:R:3:initial_magmoms:R:1 pbc="T T T"
Si       1.35241209      -1.35793440       1.35934155       0.00000000
Si       1.35593073       1.35772263      -1.35738472       0.00000000
Si      -1.35897696      -1.35755973      -1.35728173       0.00000000
Si      -1.35897696       1.35614250       1.36081775       0.00000000
Si       2.71324611       0.00029322      -2.71439181       0.00000000
Si       2.71472850      -2.71340901       0.00030897       0.00000000
Si      -2.71563097      -2.71305063       0.00044629       0.00000000
Si      -0.00115659      -2.71464705      -2.71446047       0.00000000
Si      -0.00065160       2.71531494      -2.71408284       0.00000000
Si       2.71415835       2.71528236      -0.00030897       0.00000000
