10
Lattice="16.28999089631971 0.0 0.0 0.0 16.28999089631971 0.0 0.0 0.0 34.33025523377368" Properties=species:S:1:pos:R:3:initial_magmoms:R:1 pbc="T T T"
Si       1.31810535       1.12774041       1.60734345       0.00000000
Si       1.65348387      -0.39767148      -1.66625420       0.00000000
Si      -0.61555023      -2.05996824       1.02527365       0.00000000
Si      -1.76551020       1.28826207      -0.95094860       0.00000000
Si       3.20922774      -0.37781397       1.67047682       0.00000000
Si       3.41435142      -1.38754962      -0.45109981       0.00000000
Si       0.01744659       1.16792784       3.61260911       0.00000000
Si       2.40645654       1.72299332      -2.45317275       0.00000000
Si       1.83554091       3.30383096       0.81661424       0.00000000
Si       0.13766679      -2.26171989       3.20651629       0.00000000
