10
Lattice="16.28999089631971 0.0 0.0 0.0 16.28999089631971 0.0 0.0 0.0 34.33025523377368" Properties=species:S:1:pos:R:3:initial_magmoms:R:1 pbc="T T T"
Si      -1.31810535      -1.12774041      -1.60734345       0.00000000
Si       0.51743556       2.17609055      -0.79072921       0.00000000
Si      -1.30065876       0.04018743       2.00526566       0.00000000
Si       1.89112239      -1.50555438       0.06313337       0.00000000
Si       0.33537852      -1.52541189      -3.27359765       0.00000000
Si       1.11819447      -2.98322028       1.75668014       0.00000000
Si       1.68272442       3.11853221       0.98442062       0.00000000
Si       0.22325445       0.68336128       3.64021065       0.00000000
Si       2.21757399       1.48174884       2.65105245       0.00000000
Si      -1.93365558      -3.18770865      -0.58206980       0.00000000
