10
Lattice="16.28999089631971 0.0 0.0 0.0 16.28999089631971 0.0 0.0 0.0 34.33025523377368" Properties=species:S:1:pos:R:3:initial_magmoms:R:1 pbc="T T T"
Si       1.71160659      -1.48053294      -0.62127498       0.00000000
Si       0.98728803       1.61559333       1.39027312       0.00000000
Si      -0.07159455       1.00585863      -2.16270430       0.00000000
Si      -1.75664844      -1.23660648       1.07326737       0.00000000
Si      -3.41798409       0.35372106       0.69893006       0.00000000
Si       1.29490839      -0.50476194      -3.29580934       0.00000000
Si       3.08280105       1.91606238       0.35960962       0.00000000
Si       1.00553283       0.49858803       3.51209006       0.00000000
Si       3.68290836      -0.08060292      -0.78063611       0.00000000
Si       0.51080553      -2.78523162      -2.67082669       0.00000000
