10
Lattice="16.28999089631971 0.0 0.0 0.0 16.28999089631971 0.0 0.0 0.0 34.33025523377368" Properties=species:S:1:pos:R:3:initial_magmoms:R:1 pbc="T T T"
Si      -0.35554554       1.28403223      -2.05236680       0.00000000
Si       0.88283655       1.66076943       1.61174257       0.00000000
Si       1.76860530      -1.44184419      -1.01713737       0.00000000
Si      -1.71400122      -1.02714966       1.60353077       0.00000000
Si      -2.88442143      -2.32860663       0.08685559       0.00000000
Si       2.18206179       0.24040782       3.07243395       0.00000000
Si       1.91863620       3.27848372       0.25023337       0.00000000
Si      -2.53267146       2.29015313      -1.73927469       0.00000000
Si       0.64136988      -2.66729202      -2.71185137       0.00000000
Si       1.56113586       2.83006889      -2.13259665       0.00000000
