10
Lattice="16.28999089631971 0.0 0.0 0.0 16.28999089631971 0.0 0.0 0.0 34.33025523377368" Properties=species:S:1:pos:R:3:initial_magmoms:R:1 pbc="T T T"
Si      -1.69857459       1.08613575       1.33132804       0.00000000
Si       2.16000513       1.00760166      -0.41278722       0.00000000
Si       0.41777334      -2.09577366       1.14103533       0.00000000
Si      -1.46049624      -0.54661095      -2.11512254       0.00000000
Si       3.29492943      -1.03702140      -0.50105036       0.00000000
Si      -2.58266547      -2.43722672      -1.09245799       0.00000000
Si      -2.22855345       2.98978515      -0.09162750       0.00000000
Si      -0.56896083      -3.67315782      -0.33880548       0.00000000
Si      -1.13987646      -2.09232018       2.93098151       0.00000000
Si      -1.99638837       2.25061011      -2.44160345       0.00000000
