10
Lattice="16.28999089631971 0.0 0.0 0.0 16.28999089631971 0.0 0.0 0.0 34.33025523377368" Properties=species:S:1:pos:R:3:initial_magmoms:R:1 pbc="T T T"
Si      -1.35772263       1.31127984       1.43633062       0.00000000
Si       1.82184102       1.01519280      -1.18077228       0.00000000
Si      -1.63515762      -1.08012474      -1.38792291       0.00000000
Si       1.32672276      -1.42920315       1.42807076       0.00000000
Si      -2.37755808       1.17128358      -1.68433050       0.00000000
Si       3.09332439      -0.98500743      -1.14295233       0.00000000
Si      -2.37112353       2.89888695      -0.07525883       0.00000000
Si      -2.67095727      -2.69783903      -0.02641371       0.00000000
Si       2.49108309      -2.92604238       0.00116036       0.00000000
Si      -0.01536147       2.64424167       2.80265151       0.00000000
