10
Lattice="16.28999089631971 0.0 0.0 0.0 16.28999089631971 0.0 0.0 0.0 34.33025523377368" Properties=species:S:1:pos:R:3:initial_magmoms:R:1 pbc="T T T"
Si      -2.20742532      -0.20359242       0.69838077       0.00000000
Si       1.08781362       1.09972161       1.74792592       0.00000000
Si       1.28919060      -1.86157233      -0.64177015       0.00000000
Si      -0.08874792       1.43280324      -1.95528078       0.00000000
Si       3.11590233      -0.12852810       1.39017013       0.00000000
Si       3.29044968      -0.63086283      -0.92015435       0.00000000
Si      -3.25958013      -1.34840475      -1.07470924       0.00000000
Si       0.12390174      -2.80401399      -2.41691998       0.00000000
Si      -1.73421711      -1.41579648      -2.96888213       0.00000000
Si       0.24522966       3.29970240       1.70068746       0.00000000
