10
Lattice="16.28999089631971 0.0 0.0 0.0 16.28999089631971 0.0 0.0 0.0 34.33025523377368" Properties=species:S:1:pos:R:3:initial_magmoms:R:1 pbc="T T T"
Si      -1.35650088       1.34965908      -1.35903257       0.00000000
Si       1.35672894       1.35480672       1.35721307       0.00000000
Si      -1.35790182      -1.36041048       1.35649213       0.00000000
Si       1.35399222      -1.36472733      -1.35872360       0.00000000
Si       0.00462636       2.70668124      -2.71136044       0.00000000
Si       0.01163106      -2.69768916      -2.72504449       0.00000000
Si      -0.00148239       2.71274112       2.71418583       0.00000000
Si      -2.71336014       2.71394658      -0.00020598       0.00000000
Si       2.71409319      -0.00296478       2.71408284       0.00000000
Si       2.71422351       2.71422351       0.00006866       0.00000000
