10
Lattice="16.28999089631971 0.0 0.0 0.0 16.28999089631971 0.0 0.0 0.0 34.33025523377368" Properties=species:S:1:pos:R:3:initial_magmoms:R:1 pbc="T T T"
Si      -0.00855225       1.87287759       1.38199953       0.00000000
Si      -0.42378435       0.53989947      -2.31526804       0.00000000
Si       2.17712592      -1.00612090      -0.31309210       0.00000000
Si      -1.85285881      -1.26718281       0.98067862       0.00000000
Si       1.72504584       3.19906278       0.45793153       0.00000000
Si      -1.35925389      -3.46557437      -0.01002444       0.00000000
Si       0.32135283      -1.34911174      -3.52427731       0.00000000
Si       2.53267146      -2.29015313       1.73927469       0.00000000
Si      -1.70416206      -0.44910878       3.47999954       0.00000000
Si       2.72549619       2.38679451      -1.48450973       0.00000000
