10
Lattice="16.28999089631971 0.0 0.0 0.0 16.28999089631971 0.0 0.0 0.0 34.33025523377368" Properties=species:S:1:pos:R:3:initial_magmoms:R:1 pbc="T T T"
Si       0.95117310      -1.97628651      -0.84730550       0.00000000
Si       0.67259781      -0.15185538       2.25275261       0.00000000
Si       0.59080572       2.19480057      -0.65450668       0.00000000
Si      -2.33750097      -0.36561276      -0.00614512       0.00000000
Si      -2.35660914      -1.93228722       1.78407570       0.00000000
Si      -0.18692775      -2.28441186       2.69389663       0.00000000
Si       0.38568204       3.20453622       1.46706995       0.00000000
Si      -0.38724588       1.72687032       3.16061671       0.00000000
Si      -0.35347671      -2.60817561      -2.73584823       0.00000000
Si       3.06294354      -1.27575135      -1.86942076       0.00000000
