10
Lattice="16.28999089631971 0.0 0.0 0.0 16.28999089631971 0.0 0.0 0.0 34.33025523377368" Properties=species:S:1:pos:R:3:initial_magmoms:R:1 pbc="T T T"
Si      -2.15909289      -0.72241263      -0.91867814       0.00000000
Si       1.69052733       0.07244163      -1.79736152       0.00000000
Si      -0.40667985       2.56526775       0.32953630       0.00000000
Si       0.02150280      -0.53380701       2.59760021       0.00000000
Si      -1.74112407       1.06857513       2.92991353       0.00000000
Si       2.91444390       2.01614814      -1.23125529       0.00000000
Si      -2.60903898       2.40769458       1.25621340       0.00000000
Si       3.26432052      -1.60878411      -1.35899824       0.00000000
Si      -3.73627440       1.18224675      -0.43850060       0.00000000
Si      -3.23074683      -2.17126152       0.83422567       0.00000000
