10
Lattice="16.28999089631971 0.0 0.0 0.0 16.28999089631971 0.0 0.0 0.0 34.33025523377368" Properties=species:S:1:pos:R:3:initial_magmoms:R:1 pbc="T T T"
Si      -1.35593073      -1.35609363       1.35707575       0.00000000
Si       1.35729909      -1.35733167      -1.35656079       0.00000000
Si      -1.35765747       1.35746199      -1.35645780       0.00000000
Si       1.35736425       1.35782037       1.35800267       0.00000000
Si      -0.00003258      -2.71324611      -2.71373953       0.00000000
Si      -2.71301805       0.00110772      -2.71397984       0.00000000
Si       2.71388142       0.00171045      -2.71545605       0.00000000
Si       2.71471221       2.71467824       0.00054928       0.00000000
Si      -0.00048870       2.71496767      -2.71442614       0.00000000
Si       2.71489140      -2.71498914       0.00051495       0.00000000
