10
Lattice="16.28999089631971 0.0 0.0 0.0 16.28999089631971 0.0 0.0 0.0 34.33025523377368" Properties=species:S:1:pos:R:3:initial_magmoms:R:1 pbc="T T T"
Si       1.35593073       1.35609363      -1.35707575       0.00000000
Si       1.35529542      -1.35856971       1.35903257       0.00000000
Si      -1.35894438       1.35607734       1.35868927       0.00000000
Si      -1.35980775      -1.35863487      -1.35669811       0.00000000
Si      -0.00105885      -2.70124038       2.71967867       0.00000000
Si       2.71322982      -0.00123804      -2.71363654       0.00000000
Si      -0.00172674       2.71355562      -2.71353355       0.00000000
Si       2.71329498       2.71391400       0.00092692       0.00000000
Si       2.69943219       0.00350235       2.72874186       0.00000000
Si       2.71236645      -2.71601541       0.00082393       0.00000000
