10
Lattice="16.28999089631971 0.0 0.0 0.0 16.28999089631971 0.0 0.0 0.0 34.33025523377368" Properties=species:S:1:pos:R:3:initial_magmoms:R:1 pbc="T T T"
Si      -2.24134110       0.31555359      -0.59830802       0.00000000
Si       1.28622582      -1.46178315      -1.31697799       0.00000000
Si       0.96793551       2.11690179      -0.38652456       0.00000000
Si       0.50808510      -0.21506058       2.33555723       0.00000000
Si       3.21696549       1.35055503      -0.60558604       0.00000000
Si       0.68253471      -3.50730216      -0.38374381       0.00000000
Si      -2.84144841       2.31221889       0.54193771       0.00000000
Si       3.49874991      -1.00049922      -0.75372117       0.00000000
Si      -2.33070804       0.29763459      -2.95597395       0.00000000
Si       0.69913422       3.36645882       1.60569560       0.00000000
