10
Lattice="16.28999089631971 0.0 0.0 0.0 16.28999089631971 0.0 0.0 0.0 34.33025523377368" Properties=species:S:1:pos:R:3:initial_magmoms:R:1 pbc="T T T"
Si      -2.20235913      -0.15757317       0.92667710       0.00000000
Si       0.02393001       1.11692385      -2.17760364       0.00000000
Si       1.18097613       0.95187357       2.08978679       0.00000000
Si       0.40667985      -2.56526775      -0.32953630       0.00000000
Si      -1.33444422      -1.49669262       2.60037723       0.00000000
Si      -0.34986033       3.33706256      -1.36215663       0.00000000
Si      -3.32959455      -1.38302100      -0.76803690       0.00000000
Si       3.32112375      -0.54911961      -1.56079160       0.00000000
Si      -0.33702381       0.21686877       3.72332909       0.00000000
Si       2.28825630       1.08869328      -2.85675946       0.00000000
