10
Lattice="16.28999089631971 0.0 0.0 0.0 16.28999089631971 0.0 0.0 0.0 34.33025523377368" Properties=species:S:1:pos:R:3:initial_magmoms:R:1 pbc="T T T"
Si       1.36236528      -1.30049344      -1.36523949       0.00000000
Si       1.36195803       1.33994519       1.36451512       0.00000000
Si      -1.35174420      -1.37692612       1.36695257       0.00000000
Si      -1.56286260       1.19608657      -1.43474456       0.00000000
Si      -0.44530344      -1.96282855      -2.66172196       0.00000000
Si       2.70744687       2.69724265      -0.02820575       0.00000000
Si      -2.72722293       2.69292580      -0.00783417       0.00000000
Si       0.00760743       2.69875762       2.72495523       0.00000000
Si      -2.68363089      -2.74324987       0.00432905       0.00000000
Si      -2.70953199      -0.01645566       2.72485224       0.00000000
