10
Lattice="16.28999089631971 0.0 0.0 0.0 16.28999089631971 0.0 0.0 0.0 34.33025523377368" Properties=species:S:1:pos:R:3:initial_magmoms:R:1 pbc="T T T"
Si      -1.35734796      -1.35685787       1.35745338       0.00000000
Si       1.35790182      -1.35763979      -1.35759070       0.00000000
Si      -1.35782037       1.35777030      -1.35762503       0.00000000
Si       1.35840681       1.35848380       1.35693843       0.00000000
Si       2.71085148       0.00226570       2.71638296       0.00000000
Si      -0.00083079      -2.71296779      -2.71600533       0.00000000
Si       2.71457098      -2.71453163      -0.00006866       0.00000000
Si       2.71404813       0.00134153      -2.71507841       0.00000000
Si      -2.71471221      -2.71467824      -0.00054928       0.00000000
Si      -2.71454931       2.71485111      -0.00010299       0.00000000
