10
Lattice="16.28999089631971 0.0 0.0 0.0 16.28999089631971 0.0 0.0 0.0 34.33025523377368" Properties=species:S:1:pos:R:3:initial_magmoms:R:1 pbc="T T T"
Si       0.39738528      -2.27214290      -0.14717389       0.00000000
Si       1.87787929       0.97286323      -1.02448405       0.00000000
Si      -1.94528664      -0.04426319      -1.34457953       0.00000000
Si      -0.36494487       0.72423059       2.23043793       0.00000000
Si       0.86178728       2.71345136       1.96166621       0.00000000
Si      -1.15025319      -2.99431118       1.52014455       0.00000000
Si       2.74136984       2.57668052       0.54097646       0.00000000
Si      -1.72405215      -1.84544264      -2.91690610       0.00000000
Si       0.37372518      -2.90890271      -2.52107803       0.00000000
Si       3.48996050      -0.63633368      -1.73992697       0.00000000
