10
Lattice="16.28999089631971 0.0 0.0 0.0 16.28999089631971 0.0 0.0 0.0 34.33025523377368" Properties=species:S:1:pos:R:3:initial_magmoms:R:1 pbc="T T T"
Si      -0.32327505       2.30166786      -0.34011003       0.00000000
Si       0.62274180      -0.88561546      -2.23490086       0.00000000
Si       2.04783775      -0.11948226       1.41972850       0.00000000
Si      -1.33437906      -2.63756507       0.65076468       0.00000000
Si       2.54144267      -2.31787382       0.42902544       0.00000000
Si      -2.43067977       2.15781087      -1.57593125       0.00000000
Si       1.40600034       2.80059798      -2.13802083       0.00000000
Si      -0.58893237      -2.86857356      -2.56251467       0.00000000
Si       0.72646788      -3.85763720       0.36417555       0.00000000
Si       2.81581514      -1.89076631      -2.19250298       0.00000000
