10
Lattice="16.28999089631971 0.0 0.0 0.0 16.28999089631971 0.0 0.0 0.0 34.33025523377368" Properties=species:S:1:pos:R:3:initial_magmoms:R:1 pbc="T T T"
Si       1.35746199      -1.35553977      -1.35666378       0.00000000
Si      -1.35786924      -1.35457866       1.35779668       0.00000000
Si      -1.35739683       1.35755973      -1.35745338       0.00000000
Si       1.35749457       1.35834165       1.35724740       0.00000000
Si       2.71531393       0.00156384      -2.71119909       0.00000000
Si      -2.71479366      -0.00073305       2.71260663       0.00000000
Si       2.71457156      -2.71422351       0.00082393       0.00000000
Si       0.00162900      -2.71422351      -2.71483810       0.00000000
Si      -2.71500543       0.00097740      -2.71432315       0.00000000
Si      -2.71485882      -2.71487511      -0.00006866       0.00000000
