10
Lattice="16.28999089631971 0.0 0.0 0.0 16.28999089631971 0.0 0.0 0.0 34.33025523377368" Properties=species:S:1:pos:R:3:initial_magmoms:R:1 pbc="T T T"
Si      -0.45836802      -1.09219563       1.98041054       0.00000000
Si      -1.66373028       1.76824692       0.26454909       0.00000000
Si       0.07928343      -1.87497900      -1.57476402       0.00000000
Si       2.33813628       0.78348384       0.19290181       0.00000000
Si       2.08777527       1.51365051      -1.99929219       0.00000000
Si       1.24662483      -0.44430975      -3.15498655       0.00000000
Si       0.84569535       0.03598461       3.62218725       0.00000000
Si       0.67655628      -3.13681869       1.89214740       0.00000000
Si       0.41238135       3.26927268      -1.86547278       0.00000000
Si      -0.45996444       3.77405091       0.33053188       0.00000000
