10
Lattice="16.28999089631971 0.0 0.0 0.0 16.28999089631971 0.0 0.0 0.0 34.33025523377368" Properties=species:S:1:pos:R:3:initial_magmoms:R:1 pbc="T T T"
Si      -1.52438562       1.75270626      -0.44605326       0.00000000
Si       1.78085538       0.28769769      -1.53875156       0.00000000
Si      -0.97138899      -2.14725006       0.33458285       0.00000000
Si       0.71223138       0.49091544       2.24454767       0.00000000
Si       0.52105194      -1.39975083      -3.09470259       0.00000000
Si       1.18755729      -3.22318827       0.28686377       0.00000000
Si       2.88234838       2.25971622      -0.83484361       0.00000000
Si       0.10586871       2.82339909       2.48722838       0.00000000
Si      -0.36501003       3.75318342       0.29297456       0.00000000
Si      -3.63615606       1.05217110       0.57606200       0.00000000
