10
Lattice="16.28999089631971 0.0 0.0 0.0 16.28999089631971 0.0 0.0 0.0 34.33025523377368" Properties=species:S:1:pos:R:3:initial_magmoms:R:1 pbc="T T T"
Si      -0.13043403      -2.20178898       0.77558956       0.00000000
Si       0.20797443      -0.47425077      -2.29048158       0.00000000
Si      -1.36777356       1.51826058       1.17914194       0.00000000
Si       2.30286843      -0.39205143       0.58210413       0.00000000
Si       2.01766311      -2.67156000       0.04105901       0.00000000
Si       2.01909663      -2.04463935      -2.23119320       0.00000000
Si      -0.76408245       3.56377959       0.24590776       0.00000000
Si      -1.98977463      -3.13199685      -0.13340745       0.00000000
Si      -0.76745448       1.14407928       3.49526823       0.00000000
Si      -0.42454998      -2.36571525       3.08333927       0.00000000
