10
Lattice="16.28999089631971 0.0 0.0 0.0 16.28999089631971 0.0 0.0 0.0 34.33025523377368" Properties=species:S:1:pos:R:3:initial_magmoms:R:1 pbc="T T T"
Si      -1.12914135      -1.76650389      -1.02139432       0.00000000
Si       1.97962596       0.30752262      -1.24715021       0.00000000
Si      -1.47204585       1.74329064      -0.60946536       0.00000000
Si       0.72182619       0.19194507       2.32694033       0.00000000
Si       2.50323121       1.82013057       1.54421007       0.00000000
Si      -3.30038658      -1.19368233      -0.40883924       0.00000000
Si      -0.83502540      -1.60257762      -3.32914403       0.00000000
Si      -0.67302135       3.72848778       0.23207266       0.00000000
Si      -3.66725367       1.08502803      -0.15232343       0.00000000
Si       2.94607812       2.33978157      -0.78231829       0.00000000
