10
Lattice="16.28999089631971 0.0 0.0 0.0 16.28999089631971 0.0 0.0 0.0 34.33025523377368" Properties=species:S:1:pos:R:3:initial_magmoms:R:1 pbc="T T T"
Si      -1.29881799      -1.03695624      -1.64458978       0.00000000
Si       1.28455986      -1.33649676       1.46048883       0.00000000
Si      -1.42767189       1.38162006       1.44319667       0.00000000
Si      -0.37556595       0.87496848      -3.00351936       0.00000000
Si       1.54056063       1.93909644      -1.99630344       0.00000000
Si      -2.67058260      -2.44061667       0.01914256       0.00000000
Si       2.84707728      -2.55537972       0.04569360       0.00000000
Si       2.62907146       0.03197727       2.83398132       0.00000000
Si      -2.67338448       2.81531925      -0.09906344       0.00000000
Si      -0.08182467      -2.68809435       2.83858158       0.00000000
