10
Lattice="16.28999089631971 0.0 0.0 0.0 16.28999089631971 0.0 0.0 0.0 34.33025523377368" Properties=species:S:1:pos:R:3:initial_magmoms:R:1 pbc="T T T"
Si      -2.23721973      -0.68352840      -0.26520137       0.00000000
Si       0.31987044      -0.56422044       2.28165870       0.00000000
Si       1.78338033      -0.73673154      -1.45409310       0.00000000
Si      -0.24768945       2.40920955      -0.37718673       0.00000000
Si      -3.29706342       1.19519730       0.64266274       0.00000000
Si       2.53239453      -0.10293651       2.84491551       0.00000000
Si      -2.52413550       2.67286320      -1.05088403       0.00000000
Si      -0.96635538       0.89756271       3.59863669       0.00000000
Si       1.31250159       0.19305279      -3.64834692       0.00000000
Si      -2.90981754      -0.53167302      -2.51795398       0.00000000
