10
Lattice="16.28999089631971 0.0 0.0 0.0 16.28999089631971 0.0 0.0 0.0 34.33025523377368" Properties=species:S:1:pos:R:3:initial_magmoms:R:1 pbc="T T T"
Si       1.10630277      -1.81711692       1.04779431       0.00000000
Si      -1.76528214      -0.04108338       1.58863345       0.00000000
Si       1.23271317       2.02398363       0.16619286       0.00000000
Si      -0.51701202      -0.42924150      -2.63302906       0.00000000
Si       1.74710250       0.42101505      -3.04911198       0.00000000
Si      -1.17892359      -2.79598302      -1.97543265       0.00000000
Si       2.30769027      -2.74566321      -0.73820389       0.00000000
Si      -0.52276239       3.67414434       0.05571804       0.00000000
Si      -2.06523480       1.47404952      -2.78367030       0.00000000
Si      -2.58497539      -2.21244264       1.69924559       0.00000000
