10
Lattice="16.28999089631971 0.0 0.0 0.0 16.28999089631971 0.0 0.0 0.0 34.33025523377368" Properties=species:S:1:pos:R:3:initial_magmoms:R:1 pbc="T T T"
Si       1.35591444       1.35635427       1.35937588       0.00000000
Si      -1.35967743      -1.35869514       1.35961619       0.00000000
Si       1.36533006      -1.36562002      -1.34945443       0.00000000
Si      -1.36879168       1.36674729      -1.35384870       0.00000000
Si      -0.00061902       2.70754461      -2.71658551       0.00000000
Si       2.71339272      -2.71506092       0.00477191       0.00000000
Si       2.71362078       2.71570590       0.00367334       0.00000000
Si       2.71326240      -0.00115659       2.71720689       0.00000000
Si      -2.71603990       2.71494027       0.00600780       0.00000000
Si      -0.00193851       2.71419093       2.71775617       0.00000000
