10
Lattice="16.28999089631971 0.0 0.0 0.0 16.28999089631971 0.0 0.0 0.0 34.33025523377368" Properties=species:S:1:pos:R:3:initial_magmoms:R:1 pbc="T T T"
Si       1.23888708      -1.36184400      -1.53384233       0.00000000
Si      -0.98907993      -1.72805949       1.36016547       0.00000000
Si       1.91474289       0.94350051       1.22988208       0.00000000
Si      -1.47020508       1.33121880      -1.52505378       0.00000000
Si       2.63531475      -2.54549169       0.03525719       0.00000000
Si       0.78478704      -3.40462629       1.41849261       0.00000000
Si      -2.74356441      -2.60086140      -0.13721811       0.00000000
Si       2.67413382       2.73655710      -0.12303970       0.00000000
Si      -2.75492587       2.72350881      -0.09509486       0.00000000
Si       2.58533703      -0.01650177      -2.91172222       0.00000000
