10
Lattice="16.28999089631971 0.0 0.0 0.0 16.28999089631971 0.0 0.0 0.0 34.33025523377368" Properties=species:S:1:pos:R:3:initial_magmoms:R:1 pbc="T T T"
Si       1.30002345       1.26307773       1.41233517       0.00000000
Si       1.20244635      -1.05958305      -1.73350721       0.00000000
Si      -0.89562420       1.64643030      -1.49522077       0.00000000
Si      -1.34902214      -1.51935201       1.35116892       0.00000000
Si      -0.96205482      -1.71688455      -2.51033266       0.00000000
Si      -1.46569927      -3.05649270      -0.57784718       0.00000000
Si      -2.43310209       0.26969724      -2.61840436       0.00000000
Si      -0.21546783       2.44411902       2.76268905       0.00000000
Si       2.52366309      -0.28453743       2.75212219       0.00000000
Si       2.72399751       2.63352285      -0.03717969       0.00000000
