10
Lattice="16.28999089631971 0.0 0.0 0.0 16.28999089631971 0.0 0.0 0.0 34.33025523377368" Properties=species:S:1:pos:R:3:initial_magmoms:R:1 pbc="T T T"
Si       1.08177003      -0.02570562       2.03544197       0.00000000
Si      -1.33279404      -1.85456763       0.46009434       0.00000000
Si      -1.30931527       1.98456183       0.07459969       0.00000000
Si       1.40732568      -0.79162884      -1.80268271       0.00000000
Si      -2.08773780      -2.01466575      -1.78792069       0.00000000
Si      -2.72273797      -0.74854179       2.13764320       0.00000000
Si       3.29347962       0.27645759       1.29215720       0.00000000
Si      -2.27275962       1.99081719      -2.07835481       0.00000000
Si      -2.87300933       1.61927487       1.94007247       0.00000000
Si      -0.10441890      -2.23844148      -3.13919462       0.00000000
