10
Lattice="10.86 0.0 0.0 0.0 10.86 0.0 0.0 0.0 10.86" Properties=species:S:1:pos:R:3:initial_magmoms:R:1 pbc="T T T"
Si      -1.40585958      -1.19325336       1.39914810       0.00000000
Si       1.21996896      -1.32942690      -1.51461162       0.00000000
Si       1.30914042       1.52174664       1.39914810       0.00000000
Si      -1.40585958       1.52174664      -1.31585190       0.00000000
Si       2.60217546      -2.51671812       0.02982156       0.00000000
Si      -0.04835958      -2.55075336       2.75664810       0.00000000
Si      -2.76335958      -2.55075336       0.04164810       0.00000000
Si       2.65297854       2.74978458      -0.13066752       0.00000000
Si       2.66664042       0.16424664       2.75664810       0.00000000
Si      -2.76335958       0.16424664      -2.67335190       0.00000000
