10
Lattice="10.86 0.0 0.0 0.0 10.86 0.0 0.0 0.0 10.86" Properties=species:S:1:pos:R:3:initial_magmoms:R:1 pbc="T T T"
Si       1.57159404      -1.37430042      -0.58357296       0.00000000
Si      -1.43220594      -1.16954598       1.50109092       0.00000000
Si      -1.43220594       1.54545402      -1.21390908       0.00000000
Si       1.28279406       1.54545402       1.50109092       0.00000000
Si       0.38878800      -2.47555872      -2.37102036       0.00000000
Si       2.60439090       0.36081264      -2.36178936       0.00000000
Si       2.62663218       0.05849196       2.68627530       0.00000000
Si      -2.78970594      -2.52704598       0.14359092       0.00000000
Si      -2.78970594       0.18795402      -2.57140908       0.00000000
Si      -0.07470594       2.90295402      -2.57140908       0.00000000
