10
Lattice="10.86 0.0 0.0 0.0 10.86 0.0 0.0 0.0 10.86" Properties=species:S:1:pos:R:3:initial_magmoms:R:1 pbc="T T T"
Si      -0.56443764      -1.47954468      -2.04576336       0.00000000
Si      -1.59284706       2.07811530      -0.19361208       0.00000000
Si       2.01534450      -1.57452624       0.68177994       0.00000000
Si      -1.97081850      -0.56830380       1.69229208       0.00000000
Si       2.28303264       0.93085404      -2.19335076       0.00000000
Si      -2.77565310       0.97685700      -1.98105948       0.00000000
Si      -0.58861200      -1.75559502       3.23672526       0.00000000
Si      -1.88164704      -3.14713026      -0.82394820       0.00000000
Si       0.83335296      -3.14713026       1.89105180       0.00000000
Si       2.15282124       0.95092332       3.16509270       0.00000000
