10
Lattice="16.28999089631971 0.0 0.0 0.0 16.28999089631971 0.0 0.0 0.0 34.35334932831803" Properties=species:S:1:pos:R:3:initial_magmoms:R:1 pbc="T T T"
Si       1.35663120      -1.35709269       1.35791995       0.00000000
Si      -1.35755973       1.35717203       1.35737030       0.00000000
Si      -1.35769005      -1.35719518      -1.35743900       0.00000000
Si       1.35775521       1.35847523      -1.35699241       0.00000000
Si       2.71296918      -0.00121523       2.71470624       0.00000000
Si      -0.00013032       2.71440596       2.71463753       0.00000000
Si       2.71440270       2.71525304       0.00013741       0.00000000
Si       2.71526607      -2.71492791       0.00058401       0.00000000
Si       2.71521720      -0.00151171      -2.71501542       0.00000000
Si      -2.71508688      -2.71518855       0.00034353       0.00000000
