10
Lattice="16.28999089631971 0.0 0.0 0.0 16.28999089631971 0.0 0.0 0.0 34.35334932831803" Properties=species:S:1:pos:R:3:initial_magmoms:R:1 pbc="T T T"
Si       0.10419084      -0.87467267       2.19122072       0.00000000
Si      -0.91847907      -1.62803630      -1.45211689       0.00000000
Si      -1.84062339       1.53809528      -0.06671424       0.00000000
Si       2.41761519       0.36103527      -0.67459710       0.00000000
Si       0.62115399      -0.69282740      -3.21942593       0.00000000
Si      -3.22595757       0.29048002      -1.44833802       0.00000000
Si      -0.89840979       3.07422599      -1.65641637       0.00000000
Si       0.76944186       1.07686674       3.36408938       0.00000000
Si       1.95813945       2.58391328       1.80049440       0.00000000
Si       1.63144350      -2.80637345       2.18810624       0.00000000
