10
Lattice="16.28999089631971 0.0 0.0 0.0 16.28999089631971 0.0 0.0 0.0 34.35334932831803" Properties=species:S:1:pos:R:3:initial_magmoms:R:1 pbc="T T T"
Si       1.35387819      -1.35329175       1.35795430       0.00000000
Si      -1.34860023      -1.35886293      -1.36963789       0.00000000
Si      -1.35873261       1.36518345       1.35520604       0.00000000
Si       1.34550513       1.36751292      -1.36935619       0.00000000
Si      -0.37048347       2.36161017      -2.72922054       0.00000000
Si      -2.51584715       0.15498306      -2.77540521       0.00000000
Si       0.20452095      -2.64438828      -2.73790507       0.00000000
Si       2.71316466      -2.70816363      -0.00034353       0.00000000
Si      -0.00301365      -2.70941796       2.71453447       0.00000000
Si       2.71173114       0.00459378       2.71446577       0.00000000
