10
Lattice="16.28999089631971 0.0 0.0 0.0 16.28999089631971 0.0 0.0 0.0 34.35334932831803" Properties=species:S:1:pos:R:3:initial_magmoms:R:1 pbc="T T T"
Si      -1.92753054      -1.24584291      -0.26390258       0.00000000
Si       0.23131800       2.21214942       0.76501516       0.00000000
Si       1.01823903      -1.25753913       1.71474839       0.00000000
Si       0.82474641       0.12592170      -2.20874983       0.00000000
Si       2.72249883      -1.17320580      -1.67922701       0.00000000
Si       2.22237954       2.59320510      -0.44831146       0.00000000
Si       3.46001229       0.49418973      -0.20849059       0.00000000
Si      -0.61383978      -0.86597640       3.37253890       0.00000000
Si      -2.32362189      -1.86983136       2.05653005       0.00000000
Si      -1.93979691       3.05903394       0.36634432       0.00000000
