10
Lattice="16.28999089631971 0.0 0.0 0.0 16.28999089631971 0.0 0.0 0.0 34.35334932831803" Properties=species:S:1:pos:R:3:initial_magmoms:R:1 pbc="T T T"
Si      -1.87134633      -1.00238886      -0.99178175       0.00000000
Si       1.36946772      -1.65695364       0.97110102       0.00000000
Si      -0.37973619       1.80564876       1.47410304       0.00000000
Si       0.90676656       0.64624059      -2.09857858       0.00000000
Si      -0.86284872       3.29186691      -0.24572965       0.00000000
Si      -0.85586031      -2.99033901      -1.63759072       0.00000000
Si      -2.38503519       0.90090216       2.44472312       0.00000000
Si       2.99911932      -0.47052036      -1.94773294       0.00000000
Si       0.83973321       3.01972617      -1.86803312       0.00000000
Si       0.13367574      -3.65896206       0.46624392       0.00000000
