10
Lattice="16.28999089631971 0.0 0.0 0.0 16.28999089631971 0.0 0.0 0.0 34.35334932831803" Properties=species:S:1:pos:R:3:initial_magmoms:R:1 pbc="T T T"
Si       1.82764026       0.94610691       1.20566582       0.00000000
Si      -1.18008018       1.48867794      -1.52364060       0.00000000
Si       1.51614288      -1.23935949      -1.53033951       0.00000000
Si      -1.74633687      -0.92641230       1.54943998       0.00000000
Si       0.63258957       1.87727589       3.14931071       0.00000000
Si      -2.70907587      -2.55645486       0.01642091       0.00000000
Si      -2.58740586       2.85534378      -0.00020612       0.00000000
Si       2.95165026      -2.47744836      -0.01975319       0.00000000
Si      -2.53759104       0.12196323      -2.92024244       0.00000000
Si       2.80474704       2.71138905      -0.19643256       0.00000000
