10
Lattice="16.28999089631971 0.0 0.0 0.0 16.28999089631971 0.0 0.0 0.0 34.35334932831803" Properties=species:S:1:pos:R:3:initial_magmoms:R:1 pbc="T T T"
Si      -0.96273900      -1.63004256      -1.53301907       0.00000000
Si       1.74633687       0.92641230      -1.54943998       0.00000000
Si       0.46341792      -1.76147028       1.75823975       0.00000000
Si      -1.80924885       1.76440248       0.17671373       0.00000000
Si      -2.87712351      -2.31642171      -0.13274142       0.00000000
Si      -0.63162846      -3.61887237       0.61877287       0.00000000
Si      -2.14610976      -0.30944484      -3.10966692       0.00000000
Si       2.82522357      -1.92419109       1.83175596       0.00000000
Si      -3.36168585       1.08038538      -1.63697236       0.00000000
Si      -2.00467998       2.09284146       2.65390078       0.00000000
