10
Lattice="16.28999089631971 0.0 0.0 0.0 16.28999089631971 0.0 0.0 0.0 34.35334932831803" Properties=species:S:1:pos:R:3:initial_magmoms:R:1 pbc="T T T"
Si       2.12165847       0.69467076       0.76157983       0.00000000
Si      -0.79702083       1.07756721      -1.94732069       0.00000000
Si      -1.70258193       0.27214074       1.62230348       0.00000000
Si       0.06703335      -2.37348558      -0.23054546       0.00000000
Si       3.37983291      -0.14840190      -1.17862972       0.00000000
Si      -0.83973321      -3.01972617       1.86803312       0.00000000
Si      -1.21946940      -1.21407741       3.34213616       0.00000000
Si      -3.72167856      -0.60077520       0.74897214       0.00000000
Si      -1.12821282       3.38866209      -1.46177018       0.00000000
Si      -0.85043574      -2.93193936      -2.37708134       0.00000000
