10
Lattice="16.28999089631971 0.0 0.0 0.0 16.28999089631971 0.0 0.0 0.0 34.35334932831803" Properties=species:S:1:pos:R:3:initial_magmoms:R:1 pbc="T T T"
Si       0.48311253      -1.48621815       1.71983269       0.00000000
Si      -2.01909663      -0.87291594      -0.87333133       0.00000000
Si       1.70258193      -0.27214074      -1.62230348       0.00000000
Si      -0.10257813       2.17645803       0.97412412       0.00000000
Si       0.86284872      -3.29186691       0.24572965       0.00000000
Si       1.76961528      -2.64562632      -1.85284893       0.00000000
Si      -2.64016917       0.67896720      -2.53435106       0.00000000
Si      -3.20142483      -1.63851336       1.07776823       0.00000000
Si       0.90556110       0.80542647      -3.56962417       0.00000000
Si       2.38068576      -0.66134142       2.92240671       0.00000000
