10
Lattice="16.28999089631971 0.0 0.0 0.0 16.28999089631971 0.0 0.0 0.0 34.35334932831803" Properties=species:S:1:pos:R:3:initial_magmoms:R:1 pbc="T T T"
Si       1.35912357      -1.35711990       1.35441591       0.00000000
Si      -1.35780408      -1.35589815      -1.35757642       0.00000000
Si       1.35684297       1.35931760      -1.35747336       0.00000000
Si      -1.35751086       1.35982281       1.35829784       0.00000000
Si       2.71067229      -0.02278971       2.71261069       0.00000000
Si       2.71401174      -2.71256193      -0.00109931       0.00000000
Si       2.71318095       2.71519506      -0.00068707       0.00000000
Si      -0.00021177      -2.71342530      -2.71515283       0.00000000
Si      -2.71487511       0.00122175      -2.71504977       0.00000000
Si       2.71547784       0.00148239      -2.71480930       0.00000000
