10
Lattice="16.28999089631971 0.0 0.0 0.0 16.28999089631971 0.0 0.0 0.0 34.35334932831803" Properties=species:S:1:pos:R:3:initial_magmoms:R:1 pbc="T T T"
Si       2.03791158       1.23649245      -0.09629249       0.00000000
Si       0.10257813      -2.17645803      -0.97412412       0.00000000
Si      -1.54365669       1.43609382      -1.14829570       0.00000000
Si      -0.04193046       0.21577734       2.42775255       0.00000000
Si      -0.38286387       2.55810015       1.95680222       0.00000000
Si       1.15676919       3.49330905       0.18949318       0.00000000
Si      -1.63861110       0.67727304      -3.33849471       0.00000000
Si       0.58569066      -3.66267618       0.74570857       0.00000000
Si      -3.60256608       1.51127217      -0.08193278       0.00000000
Si      -0.82973115       3.72459447      -1.18299260       0.00000000
