10
Lattice="16.28999089631971 0.0 0.0 0.0 16.28999089631971 0.0 0.0 0.0 34.35334932831803" Properties=species:S:1:pos:R:3:initial_magmoms:R:1 pbc="T T T"
Si       2.30684319       0.29541915      -0.14225730       0.00000000
Si      -1.21443579       1.39518963      -1.42964978       0.00000000
Si      -0.84492972      -2.18010373       0.25260032       0.00000000
Si      -1.14412815       0.53612019       2.00816051       0.00000000
Si      -1.29290472      -1.81025394       2.51257102       0.00000000
Si       2.63785599      -1.67959837      -1.36499675       0.00000000
Si      -0.48242835       3.44160459      -0.45408283       0.00000000
Si      -3.55783374       1.10123658      -0.68297932       0.00000000
Si       3.13764948       0.75026853       2.02945960       0.00000000
Si      -3.04188057       1.83524769       1.47863769       0.00000000
