10
Lattice="16.28999089631971 0.0 0.0 0.0 16.28999089631971 0.0 0.0 0.0 34.35334932831803" Properties=species:S:1:pos:R:3:initial_magmoms:R:1 pbc="T T T"
Si      -1.45787355      -0.55104998       1.74453276       0.00000000
Si      -1.85608260       0.17091142      -1.47479011       0.00000000
Si       0.50707512      -2.33698525       0.29461449       0.00000000
Si       2.10238740       1.24698484      -0.25558906       0.00000000
Si      -0.03528414       0.68167297       3.10451391       0.00000000
Si       1.72760337       2.15301835       1.93196474       0.00000000
Si       1.65960891      -1.95148240       2.29600739       0.00000000
Si      -3.25433475      -1.60491265      -0.80029607       0.00000000
Si       1.77080445       2.89804150      -1.91080306       0.00000000
Si       1.41876126      -3.20242408      -1.75538842       0.00000000
