10
Lattice="16.28999089631971 0.0 0.0 0.0 16.28999089631971 0.0 0.0 0.0 34.35334932831803" Properties=species:S:1:pos:R:3:initial_magmoms:R:1 pbc="T T T"
Si       2.15969562       0.54037514      -0.67239848       0.00000000
Si      -1.53327996       0.90135828      -1.52154505       0.00000000
Si      -0.12088809      -2.32738392      -0.56129969       0.00000000
Si      -0.28518903       1.05258161       2.13918426       0.00000000
Si      -1.68344118      -0.72324246       2.81367830       0.00000000
Si       2.07616050      -0.11165329      -2.94229731       0.00000000
Si       1.27255851      -2.32208967      -2.47237758       0.00000000
Si      -1.09856502       3.22321270      -1.39959059       0.00000000
Si      -3.69840015       0.38211127      -0.78459658       0.00000000
Si       1.00784601      -3.54038619       1.06172521       0.00000000
