10
Lattice="16.28999089631971 0.0 0.0 0.0 16.28999089631971 0.0 0.0 0.0 34.35334932831803" Properties=species:S:1:pos:R:3:initial_magmoms:R:1 pbc="T T T"
Si       1.42100928       1.26359901      -1.36198193       0.00000000
Si      -1.32027192       1.36923966       1.38415562       0.00000000
Si       1.38883653      -1.36980981       1.36912602       0.00000000
Si      -1.89214866      -0.83590506      -1.21294290       0.00000000
Si       2.46117465      -0.53017434      -2.69238484       0.00000000
Si       0.02254536       2.31158358      -2.91636880       0.00000000
Si      -2.59454088       2.80906389      -0.08779347       0.00000000
Si      -2.68121997      -0.00578295       2.74497843       0.00000000
Si      -3.51326430       0.97829595      -1.25149287       0.00000000
Si       0.03251484       2.71052568       2.74937566       0.00000000
