10
Lattice="16.28999089631971 0.0 0.0 0.0 16.28999089631971 0.0 0.0 0.0 34.35334932831803" Properties=species:S:1:pos:R:3:initial_magmoms:R:1 pbc="T T T"
Si      -1.25162586       1.34643366       1.45927956       0.00000000
Si      -1.35514881      -1.19801547      -1.52746211       0.00000000
Si       0.90533304       1.87118343      -1.14396133       0.00000000
Si       1.47307212      -1.36767582       1.42222602       0.00000000
Si       0.52691634      -2.18817054      -2.64257245       0.00000000
Si      -2.54384640      -2.70506201       0.03613287       0.00000000
Si      -2.47306635       2.82297555       0.07758365       0.00000000
Si      -2.59835274      -0.00977400       2.81667391       0.00000000
Si       2.79748170       2.70708849       0.06898156       0.00000000
Si       0.11626173       2.70130554       2.81395999       0.00000000
