10
Lattice="16.28999089631971 0.0 0.0 0.0 16.28999089631971 0.0 0.0 0.0 34.35334932831803" Properties=species:S:1:pos:R:3:initial_magmoms:R:1 pbc="T T T"
Si       1.00541880       1.68723675      -1.43916567       0.00000000
Si      -1.69497450      -1.12259277      -1.44799448       0.00000000
Si      -0.86734476       1.31408172       1.96178346       0.00000000
Si       1.85038110      -1.82552256       0.06702342       0.00000000
Si      -0.99961956      -2.07306540       2.81618609       0.00000000
Si       2.30871654       0.23384295      -2.95442405       0.00000000
Si      -0.26761212      -0.02665044       3.79175305       0.00000000
Si      -0.41749641      -2.49580719      -2.96229097       0.00000000
Si       1.89514602       3.45683574       0.16915599       0.00000000
Si      -3.22915041       1.47680253       1.88826725       0.00000000
