10
Lattice="16.28999089631971 0.0 0.0 0.0 16.28999089631971 0.0 0.0 0.0 34.35334932831803" Properties=species:S:1:pos:R:3:initial_magmoms:R:1 pbc="T T T"
Si       0.26112870       0.87379560      -2.12108003       0.00000000
Si       0.04225626       2.03344812       1.14980724       0.00000000
Si       1.75990644      -1.34366436       0.80187633       0.00000000
Si      -2.18064456      -0.87793326      -0.19784105       0.00000000
Si       0.57611214       1.31908275       3.30019070       0.00000000
Si       2.25961848      -0.32143428       2.90492084       0.00000000
Si      -0.47638476      -0.79359993      -3.59181645       0.00000000
Si      -3.19888359       0.37960587      -1.91258944       0.00000000
Si       1.07761608      -3.56077083       0.52935106       0.00000000
Si       1.97001486       3.21062868       0.54821105       0.00000000
