10
Lattice="16.28999089631971 0.0 0.0 0.0 16.28999089631971 0.0 0.0 0.0 34.35334932831803" Properties=species:S:1:pos:R:3:initial_magmoms:R:1 pbc="T T T"
Si       1.03363308      -0.52747020       1.98603694       0.00000000
Si       1.57097502       0.05838336      -1.74360522       0.00000000
Si      -1.09700118      -1.87862796      -0.93853403       0.00000000
Si      -1.24056495       2.02681809      -0.01758892       0.00000000
Si      -0.52755165      -2.10556395       2.83229782       0.00000000
Si      -1.63085706      -1.16426259      -3.08891748       0.00000000
Si       0.29690154       0.01291797      -3.69051367       0.00000000
Si       2.48152086      -2.09059344      -1.80843003       0.00000000
Si       0.58650516      -3.51914499      -1.33380389       0.00000000
Si       3.53817171      -0.62747451       1.42054614       0.00000000
