10
Lattice="16.28999089631971 0.0 0.0 0.0 16.28999089631971 0.0 0.0 0.0 34.35334932831803" Properties=species:S:1:pos:R:3:initial_magmoms:R:1 pbc="T T T"
Si       1.56118473       1.57809375      -0.84626088       0.00000000
Si      -0.31361508       0.42940440       2.34782639       0.00000000
Si       1.07085573      -2.15860419      -0.32333390       0.00000000
Si      -2.45084679       0.10751400      -0.67741407       0.00000000
Si       0.52755165       2.10556395      -2.83229782       0.00000000
Si       3.24008100      -1.68345747       0.48208082       0.00000000
Si      -1.93473072       2.24360541       2.30927641       0.00000000
Si      -0.69203178      -3.62994957       0.84921527       0.00000000
Si      -0.56944953       0.22693599      -3.77083185       0.00000000
Si      -3.06131454       2.29545648       0.16647642       0.00000000
