10
Lattice="16.28999089631971 0.0 0.0 0.0 16.28999089631971 0.0 0.0 0.0 34.35334932831803" Properties=species:S:1:pos:R:3:initial_magmoms:R:1 pbc="T T T"
Si      -1.35680387      -1.35822762       1.35685500       0.00000000
Si      -1.35734470       1.35694071      -1.35798866       0.00000000
Si       1.35777150      -1.35760860      -1.35764512       0.00000000
Si       1.35783666       1.35922131       1.35623664       0.00000000
Si      -0.00045612       2.71160082       2.71364129       0.00000000
Si       0.00071676      -2.71375110      -2.71498107       0.00000000
Si      -2.71292750      -0.00022806      -2.71583990       0.00000000
Si      -2.71461113       2.71417464      -0.00079013       0.00000000
Si       2.71466334      -0.00148239      -2.71422529       0.00000000
Si       2.71502172       2.71469592      -0.00065271       0.00000000
