10
Lattice="16.28999089631971 0.0 0.0 0.0 16.28999089631971 0.0 0.0 0.0 34.35334932831803" Properties=species:S:1:pos:R:3:initial_magmoms:R:1 pbc="T T T"
Si       1.35565380       1.35847056       1.35692370       0.00000000
Si       1.35698958      -1.35739891      -1.35747336       0.00000000
Si      -1.35767376       1.35702564      -1.35719853       0.00000000
Si      -1.35814617      -1.35937000       1.35754206       0.00000000
Si       0.00294849      -2.71492606       2.71374435       0.00000000
Si       2.71416809      -2.71494235       0.00006871       0.00000000
Si      -2.71520091       0.00125464      -2.71391611       0.00000000
Si       2.71457565       2.71492908       0.00024047       0.00000000
Si       0.00228060       2.71372362       2.71642391       0.00000000
Si      -0.00074934      -2.71530073      -2.71515283       0.00000000
