10
Lattice="16.28999089631971 0.0 0.0 0.0 16.28999089631971 0.0 0.0 0.0 34.35334932831803" Properties=species:S:1:pos:R:3:initial_magmoms:R:1 pbc="T T T"
Si      -2.04485112      -0.37537210       1.09233406       0.00000000
Si       0.46103958      -0.87930162      -2.16549894       0.00000000
Si       1.50773286      -1.39797359       1.25042826       0.00000000
Si       0.56500236       2.37302946       0.13854714       0.00000000
Si      -2.37586392       1.59964542       2.31507351       0.00000000
Si      -1.72999800       3.20324931       0.57126217       0.00000000
Si       1.51247439       0.93700080      -3.29036564       0.00000000
Si       3.35820698      -0.11611512       1.75552584       0.00000000
Si       2.18626854       2.78308134      -1.75064766       0.00000000
Si       2.13874572      -2.71724435      -1.96666164       0.00000000
