10
Lattice="16.28999089631971 0.0 0.0 0.0 16.28999089631971 0.0 0.0 0.0 34.35334932831803" Properties=species:S:1:pos:R:3:initial_magmoms:R:1 pbc="T T T"
Si      -1.24872184       1.42555419       1.36716101       0.00000000
Si       1.34360735       1.36058967      -1.36826032       0.00000000
Si      -1.37110617      -1.35029439      -1.36321037       0.00000000
Si       1.27678577      -1.25463951       1.62134158       0.00000000
Si      -2.27206308      -0.19864026       2.77485899       0.00000000
Si       1.97298778       0.71242686       2.97091366       0.00000000
Si      -0.66351939      -2.19882420       3.01148499       0.00000000
Si       2.69297320      -2.70350469       0.02944084       0.00000000
Si       2.70400154       2.71940373      -0.00601184       0.00000000
Si       2.70190013       0.00821016      -2.72566497       0.00000000
