10
Lattice="16.28999089631971 0.0 0.0 0.0 16.28999089631971 0.0 0.0 0.0 34.35334932831803" Properties=species:S:1:pos:R:3:initial_magmoms:R:1 pbc="T T T"
Si      -2.04561675      -0.03411126       1.01510769       0.00000000
Si      -0.13165578       1.50586389      -1.75130037       0.00000000
Si       1.60311519       0.20509110       1.91509724       0.00000000
Si      -0.35282511      -2.13183972      -1.97727683       0.00000000
Si       1.84622715      -2.09530125       1.65834016       0.00000000
Si       2.01414447       0.96361866      -2.55163080       0.00000000
Si      -1.52155116      -1.51734834       2.76850362       0.00000000
Si       2.92053589      -2.01590379      -0.46019772       0.00000000
Si       0.16545753       3.55568346      -0.62454424       0.00000000
Si       3.55174032       0.25703991      -0.76223254       0.00000000
