10
Lattice="16.28999089631971 0.0 0.0 0.0 16.28999089631971 0.0 0.0 0.0 34.35334932831803" Properties=species:S:1:pos:R:3:initial_magmoms:R:1 pbc="T T T"
Si      -0.67379415      -1.84608054      -1.53971798       0.00000000
Si      -1.62126618      -0.41005188       1.88919480       0.00000000
Si       1.94030516       0.94418469      -1.39014341       0.00000000
Si      -1.60854369       2.00018394      -0.23662600       0.00000000
Si      -2.07562686      -0.51683283      -2.99204099       0.00000000
Si       0.66351939       2.19882420      -3.01148499       0.00000000
Si      -3.45178977       0.88537779      -1.51189175       0.00000000
Si       2.63650718       2.91125106      -0.04057133       0.00000000
Si      -0.64290554       0.53610390       3.83898893       0.00000000
Si      -2.18626854      -2.78308134       1.75064766       0.00000000
