10
Lattice="16.28999089631971 0.0 0.0 0.0 16.28999089631971 0.0 0.0 0.0 34.35334932831803" Properties=species:S:1:pos:R:3:initial_magmoms:R:1 pbc="T T T"
Si       0.90341082      -0.11274309      -2.15873132       0.00000000
Si       1.33178895      -0.31346847       1.90705855       0.00000000
Si      -1.85992704      -1.45661922      -0.03342583       0.00000000
Si      -0.59512257       2.25109881       0.44329587       0.00000000
Si      -0.14823900       0.39385962       3.65179743       0.00000000
Si      -2.65979862       2.56257990      -0.71238580       0.00000000
Si      -2.60047044       1.06811901      -2.53328610       0.00000000
Si      -0.95654880       2.40463206       2.78227932       0.00000000
Si      -0.44070966       1.10561859      -3.62840278       0.00000000
Si      -3.09576789      -1.33854930       1.95158051       0.00000000
