10
Lattice="16.28999089631971 0.0 0.0 0.0 16.28999089631971 0.0 0.0 0.0 34.35334932831803" Properties=species:S:1:pos:R:3:initial_magmoms:R:1 pbc="T T T"
Si      -1.34412048       1.21836168      -1.46967146       0.00000000
Si      -0.90341082       0.11274309       2.15873132       0.00000000
Si       2.27502882       0.59131071      -0.10319752       0.00000000
Si      -0.29711331      -2.04981957      -1.12675613       0.00000000
Si      -0.14687064       3.16614069      -0.92142605       0.00000000
Si       2.05314273       2.93255838       0.04727024       0.00000000
Si       2.66698251      -0.43367238      -2.37230622       0.00000000
Si      -0.16545753      -3.55568346       0.62454424       0.00000000
Si      -3.50388126       1.18086210      -0.37455478       0.00000000
Si       1.84868694      -2.59206480      -1.92708656       0.00000000
