10
Lattice="16.28999089631971 0.0 0.0 0.0 16.28999089631971 0.0 0.0 0.0 34.35334932831803" Properties=species:S:1:pos:R:3:initial_magmoms:R:1 pbc="T T T"
Si       1.34412048      -1.21836168       1.46967146       0.00000000
Si       1.19724984       1.94777901       0.54824541       0.00000000
Si      -2.15976078      -0.03749958       1.09511668       0.00000000
Si      -0.44654148      -1.87981713      -2.07367238       0.00000000
Si       1.04700717      -3.26818125       0.34291532       0.00000000
Si      -2.46027870      -0.22586085      -2.45657503       0.00000000
Si       2.72776050       0.05276331      -2.28185380       0.00000000
Si      -3.65532939       0.70530813      -0.51293015       0.00000000
Si       0.44070966      -1.10561859       3.62840278       0.00000000
Si       3.61914930      -0.62705097       1.36647394       0.00000000
