10
Lattice="16.28999089631971 0.0 0.0 0.0 16.28999089631971 0.0 0.0 0.0 34.35334932831803" Properties=species:S:1:pos:R:3:initial_magmoms:R:1 pbc="T T T"
Si      -0.73780668       1.36530483       1.71632864       0.00000000
Si      -0.98438841       0.63982233      -2.01417235       0.00000000
Si      -1.42081380      -1.92915954       0.34559489       0.00000000
Si       2.42344701      -0.10842624      -0.15854080       0.00000000
Si       2.13086232      -1.36044306      -2.20916207       0.00000000
Si      -0.06915105      -1.12686075      -3.17785836       0.00000000
Si      -0.31462506      -0.15892524       3.48250403       0.00000000
Si      -1.78224003      -1.77562629       2.68457834       0.00000000
Si       0.41282118       3.38857154       1.75075072       0.00000000
Si       3.13247156      -1.26832311       1.84446671       0.00000000
