10
Lattice="16.28999089631971 0.0 0.0 0.0 16.28999089631971 0.0 0.0 0.0 34.35334932831803" Properties=species:S:1:pos:R:3:initial_magmoms:R:1 pbc="T T T"
Si      -0.29258469      -1.25201682      -2.05062127       0.00000000
Si       0.70902455      -1.15989687       2.00300751       0.00000000
Si      -2.42344701       0.10842624       0.15854080       0.00000000
Si       1.33420706       2.07437416      -0.18059566       0.00000000
Si       0.37372080       1.81666962      -2.77145801       0.00000000
Si       0.37203413       3.36293108       1.60121051       0.00000000
Si       1.19272026      -0.24475725      -3.61672264       0.00000000
Si       0.31894191      -3.47192028       1.70138493       0.00000000
Si      -3.40783542       0.74824857      -1.85563155       0.00000000
Si      -3.16125369       1.47373107       1.87486944       0.00000000
