10
Lattice="16.28999089631971 0.0 0.0 0.0 16.28999089631971 0.0 0.0 0.0 34.35334932831803" Properties=species:S:1:pos:R:3:initial_magmoms:R:1 pbc="T T T"
Si      -2.26820331      -0.36753498      -0.12198881       0.00000000
Si       0.91523736      -1.76668308      -1.16368601       0.00000000
Si       0.98438841      -0.63982233       2.01417235       0.00000000
Si       0.22897224       2.09102254      -1.07392065       0.00000000
Si      -0.43642539      -2.56898187       2.35976724       0.00000000
Si      -2.50110144      -2.25750078       1.20408557       0.00000000
Si      -3.25381347       1.59051717       0.54367641       0.00000000
Si       3.11525073      -2.00026539      -0.19498972       0.00000000
Si       0.24658173       0.72548250       3.73050100       0.00000000
Si      -2.94586731      -0.90258003      -2.33197536       0.00000000
