10
Lattice="16.28999089631971 0.0 0.0 0.0 16.28999089631971 0.0 0.0 0.0 34.35334932831803" Properties=species:S:1:pos:R:3:initial_magmoms:R:1 pbc="T T T"
Si      -1.46761497      -1.61670105      -0.79792569       0.00000000
Si      -0.93781530       1.03959522       1.87651840       0.00000000
Si       2.25647451      -0.59543208       0.36984837       0.00000000
Si      -0.42318162       1.52423007      -1.76617538       0.00000000
Si       0.88620858       2.58848656       2.05508721       0.00000000
Si      -2.75230953       1.68628934      -1.34617110       0.00000000
Si       0.31462506       0.15892524      -3.48250403       0.00000000
Si       2.86795224       1.39452174       1.46750720       0.00000000
Si      -2.66877441       2.33831777       0.92372773       0.00000000
Si      -0.65930517      -3.62747349       0.07159242       0.00000000
