10
Lattice="16.28999089631971 0.0 0.0 0.0 16.28999089631971 0.0 0.0 0.0 34.35334932831803" Properties=species:S:1:pos:R:3:initial_magmoms:R:1 pbc="T T T"
Si       0.61147773       1.98995382       1.09765883       0.00000000
Si      -2.25647451       0.59543208      -0.36984837       0.00000000
Si       0.31146480      -1.98713565       1.28505646       0.00000000
Si       1.19062211      -0.51396579      -2.00788568       0.00000000
Si       0.80053947      -2.82598920      -2.30950826       0.00000000
Si       1.90302128       3.19367635      -0.44308975       0.00000000
Si       3.51206603      -0.27948753      -1.32425365       0.00000000
Si       1.50810118      -3.48101010      -0.13260400       0.00000000
Si      -1.37026593       3.18391864       1.68523885       0.00000000
Si      -1.81172493      -2.92244229       1.77541644       0.00000000
