10
Lattice="16.28999089631971 0.0 0.0 0.0 16.28999089631971 0.0 0.0 0.0 34.35334932831803" Properties=species:S:1:pos:R:3:initial_magmoms:R:1 pbc="T T T"
Si       1.29154355       1.20372253      -1.54074858       0.00000000
Si      -0.61147773      -1.98995382      -1.09765883       0.00000000
Si       1.18018836      -0.26481024       2.03550579       0.00000000
Si      -1.98174366       1.19396482       0.58758002       0.00000000
Si      -2.86795224      -1.39452174      -1.46750720       0.00000000
Si       1.85854958       3.20411987      -0.42237467       0.00000000
Si      -1.76161689       1.84761899       2.84002733       0.00000000
Si      -3.80576754      -0.35492652       0.40901121       0.00000000
Si      -0.31141593       0.23190267       3.84053483       0.00000000
Si       3.25057895       0.01643661      -2.18027089       0.00000000
