10
Lattice="16.28999089631971 0.0 0.0 0.0 16.28999089631971 0.0 0.0 0.0 34.35334932831803" Properties=species:S:1:pos:R:3:initial_magmoms:R:1 pbc="T T T"
Si      -2.12318973      -0.93530664       0.49035998       0.00000000
Si       1.19663638      -1.49387445      -1.41766046       0.00000000
Si      -0.31146480       1.98713565      -1.28505646       0.00000000
Si       0.89050004      -0.06312375       2.22853737       0.00000000
Si      -1.28376603      -3.04393311       1.17017879       0.00000000
Si       0.17045856      -3.55965822      -0.80338788       0.00000000
Si       0.87915731       1.47316986      -3.29294214       0.00000000
Si      -1.06023465       0.34008633       3.55110770       0.00000000
Si       0.48907467      -0.83885355      -3.59456472       0.00000000
Si      -3.22724448      -1.04490576      -1.58331240       0.00000000
