10
Lattice="16.28999089631971 0.0 0.0 0.0 16.28999089631971 0.0 0.0 0.0 34.35334932831803" Properties=species:S:1:pos:R:3:initial_magmoms:R:1 pbc="T T T"
Si      -0.04699176      -0.25673040       2.34107900       0.00000000
Si      -0.82596490      -1.97591184      -0.98525461       0.00000000
Si       2.31212929       0.46522611      -0.17547701       0.00000000
Si      -1.57042020       1.73639997      -0.34071671       0.00000000
Si       2.39597392       2.41064307       1.18062222       0.00000000
Si       1.66030123      -1.82187360       2.68124606       0.00000000
Si       1.21364573       1.64504565       3.13172178       0.00000000
Si      -3.18475920      -1.93774437      -0.53546596       0.00000000
Si       3.40657294      -1.01069676       1.30790145       0.00000000
Si       0.41768375      -3.81272337      -0.14710112       0.00000000
