10
Lattice="16.28999089631971 0.0 0.0 0.0 16.28999089631971 0.0 0.0 0.0 34.35334932831803" Properties=species:S:1:pos:R:3:initial_magmoms:R:1 pbc="T T T"
Si      -1.36050822       1.35373158      -1.35520604       0.00000000
Si       1.35705474       1.35614250       1.35733594       0.00000000
Si      -1.35847849      -1.35878148       1.35671758       0.00000000
Si       1.35524655      -1.36011726      -1.36080563       0.00000000
Si      -2.68450355      -0.00436572      -2.70415632       0.00000000
Si       2.71394658       2.71226871       0.00075577       0.00000000
Si      -2.71364426       2.71352304      -0.00085883       0.00000000
Si       2.71471221      -0.00203625       2.71401917       0.00000000
Si      -0.00071676       2.71375110       2.71498107       0.00000000
Si      -2.71563787      -0.00172674       2.71439706       0.00000000
