10
Lattice="16.28999089631971 0.0 0.0 0.0 16.28999089631971 0.0 0.0 0.0 34.35334932831803" Properties=species:S:1:pos:R:3:initial_magmoms:R:1 pbc="T T T"
Si      -0.84051513      -0.29478384      -2.17635460       0.00000000
Si      -0.94141539      -0.29581011       2.23008327       0.00000000
Si       0.39206772       2.41968402      -0.11319435       0.00000000
Si       1.44888147      -2.04252165      -0.07702025       0.00000000
Si      -3.07680959      -0.01374876       1.43562727       0.00000000
Si       2.88759798      -1.24869366       1.85748664       0.00000000
Si       0.90575658       0.51639300      -3.54969922       0.00000000
Si      -2.54780813       1.27035936      -2.51652166       0.00000000
Si       1.28515068       2.93982372       2.05718277       0.00000000
Si      -1.28717064       3.17213541      -1.72587888       0.00000000
