10
Lattice="16.28999089631971 0.0 0.0 0.0 16.28999089631971 0.0 0.0 0.0 34.35334932831803" Properties=species:S:1:pos:R:3:initial_magmoms:R:1 pbc="T T T"
Si       1.33950774       1.34894232       1.37833616       0.00000000
Si      -1.37167347      -1.37072205       1.37198078       0.00000000
Si      -1.34735250       1.39201308      -1.41064550       0.00000000
Si       1.54596720      -1.21994181      -1.39885543       0.00000000
Si       0.10476207      -2.60558550      -2.63186996       0.00000000
Si       2.68905605       2.69259039       0.01445590       0.00000000
Si      -2.73011286       2.70150102       0.01249432       0.00000000
Si      -2.69816817      -0.10262700      -2.73346803       0.00000000
Si       2.70308174      -0.00974142       2.73175582       0.00000000
Si      -0.01168545       2.70257616       2.73433232       0.00000000
