10
Lattice="16.28999089631971 0.0 0.0 0.0 16.28999089631971 0.0 0.0 0.0 34.35334932831803" Properties=species:S:1:pos:R:3:initial_magmoms:R:1 pbc="T T T"
Si      -1.35724199      -1.35646830      -1.35692370       0.00000000
Si       1.35762978       1.35881406      -1.35695806       0.00000000
Si       1.35691302      -1.35904212       1.35750771       0.00000000
Si      -1.35849056       1.35993807       1.36602735       0.00000000
Si       2.71520580      -2.71142163       0.00010306       0.00000000
Si      -2.71517063      -2.71262709      -0.00027483       0.00000000
Si       0.00002444      -2.71370223      -2.71412223       0.00000000
Si       2.71465194       0.00156384      -2.71405353       0.00000000
Si      -2.71526837       0.00245979      -2.71388176       0.00000000
Si       2.71365825       2.71595025       0.00075577       0.00000000
