10
Lattice="16.28999089631971 0.0 0.0 0.0 16.28999089631971 0.0 0.0 0.0 34.35334932831803" Properties=species:S:1:pos:R:3:initial_magmoms:R:1 pbc="T T T"
Si       2.31433659       0.35150562      -0.31701288       0.00000000
Si      -0.98763012      -1.08620091       1.87363272       0.00000000
Si      -0.73345725       2.27890584       0.11051479       0.00000000
Si      -1.04796828      -0.94094298      -1.95961920       0.00000000
Si      -3.07106736      -0.01624113       1.21349839       0.00000000
Si      -3.24595354      -0.80583372      -0.99995785       0.00000000
Si       0.07649784      -3.04131042      -1.78613469       0.00000000
Si       0.76059639       2.98856340       1.72718431       0.00000000
Si       0.38033892      -0.32537646       3.72479834       0.00000000
Si       2.74279617      -0.14867883      -2.68650213       0.00000000
