10
Lattice="16.28999089631971 0.0 0.0 0.0 16.28999089631971 0.0 0.0 0.0 34.35334932831803" Properties=species:S:1:pos:R:3:initial_magmoms:R:1 pbc="T T T"
Si      -0.04149552      -2.32464816       0.34590407       0.00000000
Si      -1.32763567       0.77571351      -1.83306139       0.00000000
Si       2.29611460      -0.02950119      -0.75707954       0.00000000
Si      -0.93799516       0.89705772       2.06941257       0.00000000
Si      -0.21638170      -3.11424075      -1.86755217       0.00000000
Si      -1.54952176       3.11696118      -1.68259364       0.00000000
Si       3.02957185      -2.30840703      -0.86759432       0.00000000
Si      -2.16500683      -3.16618956       0.80977760       0.00000000
Si      -3.17428636      -0.01632258       2.33592600       0.00000000
Si       3.79016824       0.68015637       0.85958999       0.00000000
