10
Lattice="16.28999089631971 0.0 0.0 0.0 16.28999089631971 0.0 0.0 0.0 34.35334932831803" Properties=species:S:1:pos:R:3:initial_magmoms:R:1 pbc="T T T"
Si       1.49405364       0.70965756       1.61666952       0.00000000
Si       0.73345725      -2.27890584      -0.11051479       0.00000000
Si      -2.29611460       0.02950119       0.75707954       0.00000000
Si       1.00815552       1.42672707      -1.90135589       0.00000000
Si      -2.33761011      -2.29514697       1.10298360       0.00000000
Si       3.04779384      -1.92740022      -0.42752767       0.00000000
Si       3.65014917       0.23249088       0.43776498       0.00000000
Si      -0.27381861       3.42076968      -1.43724188       0.00000000
Si      -0.25417287      -3.36510675       1.76311793       0.00000000
Si       1.09988451       2.93607702       2.16821285       0.00000000
