10
Lattice="16.28999089631971 0.0 0.0 0.0 16.28999089631971 0.0 0.0 0.0 34.35334932831803" Properties=species:S:1:pos:R:3:initial_magmoms:R:1 pbc="T T T"
Si      -0.62107254       1.55188314      -1.66101972       0.00000000
Si       2.01909663       0.87291594       0.87333133       0.00000000
Si      -0.08384463      -1.94541696      -1.35609922       0.00000000
Si      -1.18232820      -0.76559742       1.95109957       0.00000000
Si       1.01059902      -3.42133983       0.12727923       0.00000000
Si      -2.39597392      -2.41064307      -1.18062222       0.00000000
Si       0.81617787       0.84333330      -3.40785416       0.00000000
Si       2.50220916      -0.61330221       2.59316402       0.00000000
Si      -2.44296569      -2.66737347       1.16045679       0.00000000
Si       3.72167856       0.60077520      -0.74897214       0.00000000
