10
Lattice="16.28999089631971 0.0 0.0 0.0 16.28999089631971 0.0 0.0 0.0 34.35334932831803" Properties=species:S:1:pos:R:3:initial_magmoms:R:1 pbc="T T T"
Si       0.31092723      -1.45199286       1.72993258       0.00000000
Si      -0.77747283       1.80064677       1.28584658       0.00000000
Si      -1.06277589      -0.96730020      -1.87552215       0.00000000
Si       2.07112689      -0.03486060      -1.20078764       0.00000000
Si       0.49409199       0.44712792      -2.94748467       0.00000000
Si       2.38547502      -0.52212708       2.33036075       0.00000000
Si       1.06145640       3.22099631       1.11301479       0.00000000
Si      -3.00780189       2.08478347       0.50623124       0.00000000
Si      -1.31154048      -0.91500930       3.37346644       0.00000000
Si       0.21919824      -2.96134281      -2.33963616       0.00000000
