10
Lattice="16.28999089631971 0.0 0.0 0.0 16.28999089631971 0.0 0.0 0.0 34.36671206372826" Properties=species:S:1:pos:R:3:initial_magmoms:R:1 pbc="T T T"
Si       0.46886530       2.11134757       0.77101762       0.00000000
Si       0.97437658      -1.71411525       1.18527419       0.00000000
Si      -2.23762765      -0.38851650       0.59478502       0.00000000
Si       0.37716726      -0.25428690      -2.32422204       0.00000000
Si      -0.51595643      -3.45284469       0.54467832       0.00000000
Si      -3.09712063       1.72978983      -0.08399229       0.00000000
Si      -2.56702774      -2.54088162      -0.35126236       0.00000000
Si      -1.77272734      -0.55677591      -3.15318196       0.00000000
Si       2.48139706       2.71198919      -0.26696077       0.00000000
Si       1.74406279      -2.19748842      -2.41687474       0.00000000
