10
Lattice="16.28999089631971 0.0 0.0 0.0 16.28999089631971 0.0 0.0 0.0 34.36671206372826" Properties=species:S:1:pos:R:3:initial_magmoms:R:1 pbc="T T T"
Si       1.46965122      -1.18796617       1.34796630       0.00000000
Si      -1.34397387      -1.36382962      -1.34748517       0.00000000
Si      -1.21498965       1.33934099       1.49378434       0.00000000
Si       1.37142252       1.35590792      -1.34741643       0.00000000
Si       0.64793475       2.25566978       2.80721208       0.00000000
Si       2.35831959       0.65102333       2.77373888       0.00000000
Si      -2.69392617       2.70582764       0.04271785       0.00000000
Si      -2.70317889      -0.00372552      -2.70521162       0.00000000
Si       0.01231524       2.71130108      -2.70497105       0.00000000
Si       0.01197315      -2.71679474      -2.70521162       0.00000000
