10
Lattice="16.28999089631971 0.0 0.0 0.0 16.28999089631971 0.0 0.0 0.0 34.36671206372826" Properties=species:S:1:pos:R:3:initial_magmoms:R:1 pbc="T T T"
Si      -1.35615879      -1.35703845      -1.35721095       0.00000000
Si       1.35910728      -1.35539316       1.35755462       0.00000000
Si      -1.35536058       1.35873261       1.35851689       0.00000000
Si       1.35793440       1.35834165      -1.35752025       0.00000000
Si      -0.01231524      -2.71130108       2.70497105       0.00000000
Si       2.71487511      -2.71343670      -0.00020620       0.00000000
Si      -2.71425609       0.00159642      -2.71442190       0.00000000
Si       0.00070047      -2.71420396      -2.71490304       0.00000000
Si       2.71427238       2.71538010       0.00041240       0.00000000
Si      -0.00070047       2.71603170      -2.71370020       0.00000000
