10
Lattice="16.28999089631971 0.0 0.0 0.0 16.28999089631971 0.0 0.0 0.0 34.36671206372826" Properties=species:S:1:pos:R:3:initial_magmoms:R:1 pbc="T T T"
Si       1.35431802       1.34170956       1.37257288       0.00000000
Si       1.35536058      -1.35873261      -1.35851689       0.00000000
Si      -1.35946566       1.35702216      -1.35855125       0.00000000
Si      -1.35088083      -1.36420605       1.38917201       0.00000000
Si      -0.11021814       2.61066798       2.69923181       0.00000000
Si       2.71446786      -2.71412577      -0.00096227       0.00000000
Si       2.71329498      -0.00039096      -2.71603714       0.00000000
Si      -2.71523349      -2.71547784       0.00216510       0.00000000
Si       2.71445157       2.71691136      -0.00223384       0.00000000
Si      -0.00079821      -2.71577106      -2.71572784       0.00000000
