10
Lattice="16.28999089631971 0.0 0.0 0.0 16.28999089631971 0.0 0.0 0.0 34.36671206372826" Properties=species:S:1:pos:R:3:initial_magmoms:R:1 pbc="T T T"
Si       0.60747039      -1.33661079       1.79720821       0.00000000
Si      -1.51055541       1.71580941       0.56351129       0.00000000
Si      -0.66013596      -1.87856280      -1.26380218       0.00000000
Si       1.87390386       1.06222203      -0.98206371       0.00000000
Si      -1.66337190       2.67038712      -1.64183622       0.00000000
Si       2.93249322      -1.72946043       1.11612833       0.00000000
Si      -0.15164361       2.84770377       2.24366642       0.00000000
Si       3.60983142       0.45077688       0.49309386       0.00000000
Si      -2.48627754      -2.71156824      -0.05766738       0.00000000
Si      -1.32085836      -2.77620696       2.02677798       0.00000000
