10
Lattice="16.28999089631971 0.0 0.0 0.0 16.28999089631971 0.0 0.0 0.0 34.36671206372826" Properties=species:S:1:pos:R:3:initial_magmoms:R:1 pbc="T T T"
Si      -1.35382932       1.35437007       1.36301893       0.00000000
Si       1.36216980      -1.36256076       1.36356880       0.00000000
Si       1.34949618       1.39515397      -1.34868800       0.00000000
Si      -1.37101527      -1.37627694      -1.36783371       0.00000000
Si       2.65075767       0.02534724      -2.68413107       0.00000000
Si      -2.70946683       2.70835164       0.00137467       0.00000000
Si      -2.71112841      -2.71586880       0.00460514       0.00000000
Si       2.72474685       2.70614108       0.01065369       0.00000000
Si      -2.71124244      -0.00376299       2.71998931       0.00000000
Si       0.00420282       2.71120401       2.72053918       0.00000000
