10
Lattice="16.28999089631971 0.0 0.0 0.0 16.28999089631971 0.0 0.0 0.0 34.36671206372826" Properties=species:S:1:pos:R:3:initial_magmoms:R:1 pbc="T T T"
Si       1.74920391       1.23931062       1.08921918       0.00000000
Si      -1.23351138       1.39382127      -1.53010998       0.00000000
Si      -1.49558490      -1.35229806       1.35652362       0.00000000
Si       1.46670273      -1.31680215      -1.49395618       0.00000000
Si       2.09328129      -0.36502632       2.87622047       0.00000000
Si      -2.56122783       2.74263327      -0.17001222       0.00000000
Si      -2.69338860      -2.77532730      -0.14413407       0.00000000
Si      -2.59610472       0.04865823      -2.89398807       0.00000000
Si       0.12025278      -2.66616801      -2.89639374       0.00000000
Si      -2.89269675       0.04412961       2.71445627       0.00000000
