10
Lattice="16.28999089631971 0.0 0.0 0.0 16.28999089631971 0.0 0.0 0.0 34.36671206372826" Properties=species:S:1:pos:R:3:initial_magmoms:R:1 pbc="T T T"
Si      -1.74920391      -1.23931062      -1.08921918       0.00000000
Si       0.34407738      -1.60433694       1.78700129       0.00000000
Si       1.18227933       1.69713685      -1.28947412       0.00000000
Si       0.73547721       1.93956626       1.39322729       0.00000000
Si      -1.58048838       1.92144852       1.83518345       0.00000000
Si      -1.13257854      -0.05121576       3.07465398       0.00000000
Si       2.45506590       0.16674444      -2.59499751       0.00000000
Si      -0.28250118      -2.55611277      -2.58317536       0.00000000
Si      -0.28737189       2.88510302      -2.63744042       0.00000000
Si      -2.98271529       0.15451065      -2.61932916       0.00000000
