10
Lattice="16.28999089631971 0.0 0.0 0.0 16.28999089631971 0.0 0.0 0.0 34.36671206372826" Properties=species:S:1:pos:R:3:initial_magmoms:R:1 pbc="T T T"
Si      -1.05321366       1.66400721       1.31348616       0.00000000
Si       1.66659732      -1.06877061       1.32165169       0.00000000
Si       1.75477509       0.93286314      -1.38664060       0.00000000
Si      -1.85240106      -1.81938123      -0.04257351       0.00000000
Si      -2.41344495       0.31053627       2.69243063       0.00000000
Si       0.31273542      -2.41536065       2.69298050       0.00000000
Si      -2.41266303       3.04003980      -0.11915289       0.00000000
Si       3.07747422      -2.38087798      -0.18634673       0.00000000
Si       1.28997252      -3.56521148      -1.41031928       0.00000000
Si       0.31130190       3.02037777       2.68552292       0.00000000
