10
Lattice="16.28999089631971 0.0 0.0 0.0 16.28999089631971 0.0 0.0 0.0 34.36671206372826" Properties=species:S:1:pos:R:3:initial_magmoms:R:1 pbc="T T T"
Si       1.35576783      -1.35804354      -1.35776082       0.00000000
Si      -1.35910728       1.35539316      -1.35755462       0.00000000
Si      -1.37142252      -1.35590792       1.34741643       0.00000000
Si       1.36603053       1.35436689       1.36023522       0.00000000
Si       0.09822870      -2.54387409       2.69538273       0.00000000
Si       2.71292031       2.70956457       0.00137467       0.00000000
Si      -2.71446786       2.71412577       0.00096227       0.00000000
Si      -0.00117288       2.71373481      -2.71507487       0.00000000
Si       2.71384884      -0.00099369      -2.71517797       0.00000000
Si      -2.71526607      -0.00164529      -2.71476557       0.00000000
