10
Lattice="16.28999089631971 0.0 0.0 0.0 16.28999089631971 0.0 0.0 0.0 34.36671206372826" Properties=species:S:1:pos:R:3:initial_magmoms:R:1 pbc="T T T"
Si      -1.46965122       1.18796617      -1.34796630       0.00000000
Si       1.27278657      -1.53039241      -1.30552339       0.00000000
Si      -1.18227933      -1.69713685       1.28947412       0.00000000
Si       0.88866837       1.83898950       1.42577258       0.00000000
Si      -0.44680212       0.24242941       2.68270141       0.00000000
Si      -2.68464087       2.52730716       0.14581804       0.00000000
Si      -0.09822870       2.54387409      -2.69538273       0.00000000
Si       2.69773803       2.56645203       0.09083127       0.00000000
Si       2.61599481      -0.17615019      -2.69263339       0.00000000
Si      -0.82171647       3.44363595       1.45924578       0.00000000
