10
Lattice="16.28999089631971 0.0 0.0 0.0 16.28999089631971 0.0 0.0 0.0 34.36671206372826" Properties=species:S:1:pos:R:3:initial_magmoms:R:1 pbc="T T T"
Si       1.22978097       0.70807254       1.85848409       0.00000000
Si      -2.16094995      -0.51003175       0.74067179       0.00000000
Si       0.06266763       1.88818693      -1.40755821       0.00000000
Si       1.17551898      -1.71182880      -1.17829775       0.00000000
Si       3.37773150       0.29518295       0.92491184       0.00000000
Si      -0.54480276       3.47937784       0.30064017       0.00000000
Si      -1.75598055      -2.34648720       2.13173397       0.00000000
Si      -3.36329856      -0.87357798      -1.20596297       0.00000000
Si       0.42456627       2.86858429       2.40690839       0.00000000
Si       3.41516592      -1.56870486      -0.52615466       0.00000000
