10
Lattice="16.28999089631971 0.0 0.0 0.0 16.28999089631971 0.0 0.0 0.0 34.36671206372826" Properties=species:S:1:pos:R:3:initial_magmoms:R:1 pbc="T T T"
Si       1.35666378      -1.35267273      -1.35648925       0.00000000
Si      -1.35624024      -1.35575154       1.35813885       0.00000000
Si      -1.35277047       1.36003581      -1.35989156       0.00000000
Si       1.35827649       1.35874890       1.35807012       0.00000000
Si       2.69928558       0.00029322      -2.71019823       0.00000000
Si       2.71362078      -2.71267596      -0.00130594       0.00000000
Si       0.00037467      -2.71282257       2.71473120       0.00000000
Si       2.71376739       2.71472850       0.00082480       0.00000000
Si      -2.71456560      -2.71407690      -0.00195890       0.00000000
Si      -2.71464705       0.00190593       2.71483430       0.00000000
