10
Lattice="16.28999089631971 0.0 0.0 0.0 16.28999089631971 0.0 0.0 0.0 34.36671206372826" Properties=species:S:1:pos:R:3:initial_magmoms:R:1 pbc="T T T"
Si      -1.35633798      -1.35703845      -1.35793265       0.00000000
Si      -1.35518139       1.36026387       1.35587065       0.00000000
Si       1.35808101       1.35852084      -1.35817322       0.00000000
Si       1.35775521      -1.36120869       1.35851689       0.00000000
Si      -0.01350441       2.69957880       2.72634716       0.00000000
Si       2.71414206      -2.71480995      -0.00123720       0.00000000
Si      -2.71497285       0.00065160      -2.71411260       0.00000000
Si       0.00206883      -2.71469592      -2.71462810       0.00000000
Si       2.71588509       2.71363707      -0.00219947       0.00000000
Si      -2.71427238      -2.71538010      -0.00041240       0.00000000
