10
Lattice="16.28999089631971 0.0 0.0 0.0 16.28999089631971 0.0 0.0 0.0 34.36671206372826" Properties=species:S:1:pos:R:3:initial_magmoms:R:1 pbc="T T T"
Si       0.85340052       1.57683942      -1.55365119       0.00000000
Si      -1.70574219      -1.01232576      -1.43683867       0.00000000
Si       1.73586240      -1.77187959      -0.35772331       0.00000000
Si      -2.54081646       1.34442999       1.81638485       0.00000000
Si      -1.01485071      -0.08198757       3.38773490       0.00000000
Si       2.31086682       0.36786078      -2.90361076       0.00000000
Si      -0.41106186      -2.35525707      -2.88790516       0.00000000
Si      -2.50058016      -2.80986210      -0.09351188       0.00000000
Si       1.86623127       3.27039669      -0.26108406       0.00000000
Si       1.36484136       0.47413674       3.64974686       0.00000000
