10
Lattice="16.28999089631971 0.0 0.0 0.0 16.28999089631971 0.0 0.0 0.0 34.36671206372826" Properties=species:S:1:pos:R:3:initial_magmoms:R:1 pbc="T T T"
Si      -0.35575731      -0.68069394      -2.24184498       0.00000000
Si      -1.03205295       2.14247709       0.09619248       0.00000000
Si      -1.75961322      -1.12581819       1.15358807       0.00000000
Si       2.20827240       0.24987231       0.90006469       0.00000000
Si      -3.49554078      -0.51437304      -0.32156950       0.00000000
Si      -1.21119408       2.21804640       2.49471539       0.00000000
Si      -1.67283639       0.01980864       3.17906011       0.00000000
Si       0.85087557      -2.73347829      -2.30944434       0.00000000
Si      -3.23509626       1.80125046      -0.81469773       0.00000000
Si       2.06596296       0.46965699       3.24566283       0.00000000
