10
Lattice="16.28999089631971 0.0 0.0 0.0 16.28999089631971 0.0 0.0 0.0 34.36671206372826" Properties=species:S:1:pos:R:3:initial_magmoms:R:1 pbc="T T T"
Si       1.35780408       1.35511623       1.35597375       0.00000000
Si      -1.35711990       1.35682668      -1.35717658       0.00000000
Si       1.35850455      -1.35871632      -1.35652362       0.00000000
Si      -1.35808101      -1.35852084       1.35817322       0.00000000
Si      -2.71326240       0.00174303       2.71404387       0.00000000
Si       2.71127502       0.00446346       2.71648391       0.00000000
Si       2.71399545      -0.00273672      -2.71376893       0.00000000
Si      -2.71461447       2.71402803       0.00103100       0.00000000
Si       0.00030951       2.71471221      -2.71517797       0.00000000
Si      -2.71441899      -2.71555929       0.00024057       0.00000000
