10
Lattice="16.28999089631971 0.0 0.0 0.0 16.28999089631971 0.0 0.0 0.0 34.36671206372826" Properties=species:S:1:pos:R:3:initial_magmoms:R:1 pbc="T T T"
Si      -1.35742941      -1.35788553       1.35800139       0.00000000
Si       1.35798327       1.35767376       1.35803575       0.00000000
Si      -1.35900954       1.36018242      -1.35741715       0.00000000
Si       1.36322865      -1.35883035      -1.35985719       0.00000000
Si      -2.70866862      -0.00309510      -2.71273793       0.00000000
Si      -2.71399545       2.71340901       0.00106537       0.00000000
Si      -0.00030951      -2.71471221       2.71517797       0.00000000
Si       2.71490769       0.00043983       2.71548727       0.00000000
Si      -2.71492398      -0.00068418       2.71620897       0.00000000
Si       2.71368594      -2.71744893       0.00140904       0.00000000
