10
Lattice="16.28999089631971 0.0 0.0 0.0 16.28999089631971 0.0 0.0 0.0 34.36671206372826" Properties=species:S:1:pos:R:3:initial_magmoms:R:1 pbc="T T T"
Si       0.62082819       2.19095613      -0.35796387       0.00000000
Si      -1.67101191      -0.32669595      -1.60142094       0.00000000
Si      -0.49264218       0.13525587       2.29824079       0.00000000
Si       1.69486047      -1.49478669      -0.72665017       0.00000000
Si       0.30540492      -3.45929553      -0.55945602       0.00000000
Si       1.70378739       0.40783644       3.25714132       0.00000000
Si       2.86047513       2.33408007       0.29417922       0.00000000
Si       0.75427587       2.50693326      -2.69957547       0.00000000
Si      -1.36094805      -1.90364940       2.94488520       0.00000000
Si      -3.13474986      -1.97638425      -0.68740336       0.00000000
