10
Lattice="16.28999089631971 0.0 0.0 0.0 16.28999089631971 0.0 0.0 0.0 34.36671206372826" Properties=species:S:1:pos:R:3:initial_magmoms:R:1 pbc="T T T"
Si       0.76737303      -1.99598112       0.96711418       0.00000000
Si       0.04052952       1.47095442       1.83827646       0.00000000
Si      -2.19642957      -0.27258057      -0.95890054       0.00000000
Si       1.78844652       0.10598274      -1.66936397       0.00000000
Si       0.69656040      -3.42655263      -0.81669100       0.00000000
Si      -1.70378739      -0.40783644      -3.25714132       0.00000000
Si       1.15668774       1.92624363      -2.96296210       0.00000000
Si       1.77600096      -2.17592046      -2.47285815       0.00000000
Si       2.24701002       2.31868602       1.92656459       0.00000000
Si       2.98753713      -1.65082860       1.66053172       0.00000000
