10
Lattice="16.28999089631971 0.0 0.0 0.0 16.28999089631971 0.0 0.0 0.0 34.36671206372826" Properties=species:S:1:pos:R:3:initial_magmoms:R:1 pbc="T T T"
Si      -1.91044952      -0.77401935      -1.09163379       0.00000000
Si       1.35220032      -1.26995211       1.44768481       0.00000000
Si       1.77974766       0.63294795      -1.47044043       0.00000000
Si      -1.31461019       1.45466442       1.42518491       0.00000000
Si       2.63840985       2.55533085      -0.11620423       0.00000000
Si       2.72694600      -2.62762587       0.20660248       0.00000000
Si      -2.55004379       2.82346425      -0.04371792       0.00000000
Si       0.01992267      -2.61500112       2.79503594       0.00000000
Si      -2.78846423      -2.63290383       0.03619848       0.00000000
Si      -2.69522027       0.09633906       2.78661609       0.00000000
