10
Lattice="16.28999089631971 0.0 0.0 0.0 16.28999089631971 0.0 0.0 0.0 34.36671206372826" Properties=species:S:1:pos:R:3:initial_magmoms:R:1 pbc="T T T"
Si       0.77499675       1.88649277      -1.22709992       0.00000000
Si       1.30846167      -1.38633831       1.48360148       0.00000000
Si      -1.41087690       1.31210737       1.50799842       0.00000000
Si      -1.78750170      -1.18433350      -1.22397255       0.00000000
Si       2.56481163       2.67147529       0.11976806       0.00000000
Si      -1.32269913       3.31374112      -1.20029387       0.00000000
Si      -0.90021798      -1.53175914      -3.39148229       0.00000000
Si       2.52206667      -2.91660462       0.03795805       0.00000000
Si      -3.07747422       2.38087798       0.18634673       0.00000000
Si       2.66199777      -0.03244316       2.86984201       0.00000000
