10
Lattice="16.28999089631971 0.0 0.0 0.0 16.28999089631971 0.0 0.0 0.0 34.36671206372826" Properties=species:S:1:pos:R:3:initial_magmoms:R:1 pbc="T T T"
Si      -1.35695700       1.36000323      -1.35518331       0.00000000
Si      -1.35596331      -1.35894764       1.35927296       0.00000000
Si       1.35879777       1.35786924       1.35875745       0.00000000
Si       1.36177884      -1.36098715      -1.36061326       0.00000000
Si      -0.01433520       2.71296918      -2.70889230       0.00000000
Si      -2.71362078       2.71267596       0.00130594       0.00000000
Si      -2.71324611      -0.00014661       2.71603714       0.00000000
Si       2.71619465       2.71432125       0.00230257       0.00000000
Si       0.00167787       2.71451673       2.71620897       0.00000000
Si      -2.71663443      -2.71411891       0.00340231       0.00000000
