10
Lattice="16.28999089631971 0.0 0.0 0.0 16.28999089631971 0.0 0.0 0.0 34.36671206372826" Properties=species:S:1:pos:R:3:initial_magmoms:R:1 pbc="T T T"
Si      -1.20487356       1.35013439      -1.61472087       0.00000000
Si       1.51374825       1.43132212       1.34466709       0.00000000
Si      -0.75147399      -1.92295245       1.38611337       0.00000000
Si       1.47989763      -1.32346416      -1.62527146       0.00000000
Si      -2.48034798       2.73873146      -0.20716266       0.00000000
Si      -2.51799417      -2.77187322      -0.01137539       0.00000000
Si       2.79554319      -2.58370743      -0.19011676       0.00000000
Si       2.82538647       2.66865188      -0.24472549       0.00000000
Si      -2.56209120      -0.00387076      -2.99062732       0.00000000
Si       1.26218178      -3.52258158       1.40274687       0.00000000
