10
Lattice="16.28999089631971 0.0 0.0 0.0 16.28999089631971 0.0 0.0 0.0 34.36671206372826" Properties=species:S:1:pos:R:3:initial_magmoms:R:1 pbc="T T T"
Si      -1.67715324      -1.61176911       0.02869622       0.00000000
Si       1.72734273      -1.28956920       1.10076640       0.00000000
Si      -0.72451404       1.95244121       1.23685866       0.00000000
Si       1.37305152       1.29426005      -1.62547766       0.00000000
Si       2.81204496       0.74354402       1.67750889       0.00000000
Si       0.96780519       1.69084010       2.84748989       0.00000000
Si       0.42904602      -1.78462230       3.02245091       0.00000000
Si      -1.81060092      -1.92774624       2.37030782       0.00000000
Si      -0.95695605      -3.36939495      -1.36435923       0.00000000
Si      -0.24309567       3.83603762      -0.23682115       0.00000000
