10
Lattice="16.28999089631971 0.0 0.0 0.0 16.28999089631971 0.0 0.0 0.0 34.36671206372826" Properties=species:S:1:pos:R:3:initial_magmoms:R:1 pbc="T T T"
Si      -1.56167343      -0.20261339      -1.74390541       0.00000000
Si       1.97877141      -0.98569975      -0.94611611       0.00000000
Si      -0.43391673      -1.67405881       1.69455479       0.00000000
Si      -0.47721555       2.42428432       0.00927902       0.00000000
Si       1.16918217       3.24183055       1.41003262       0.00000000
Si       1.31240385      -3.23758930      -1.31992305       0.00000000
Si       1.01283075      -3.46631719       0.97003536       0.00000000
Si       2.45450294       0.26864328      -2.84109767       0.00000000
Si      -0.98547984       1.40896120      -3.36993293       0.00000000
Si      -3.70962396       0.21027621      -0.81033316       0.00000000
