10
Lattice="16.28999089631971 0.0 0.0 0.0 16.28999089631971 0.0 0.0 0.0 34.36671206372826" Properties=species:S:1:pos:R:3:initial_magmoms:R:1 pbc="T T T"
Si       1.64639772       0.81754623       1.40075360       0.00000000
Si      -2.08042848       0.91856052       0.70283402       0.00000000
Si       0.48907467       0.73045989      -2.23586517       0.00000000
Si       0.47721555      -2.42428432      -0.00927902       0.00000000
Si      -1.08445788      -2.62689771      -1.75318443       0.00000000
Si       2.73442704       0.07201809      -2.18318097       0.00000000
Si      -0.50826429      -1.01532312      -3.37921195       0.00000000
Si       3.44504571       0.91919583      -0.13248375       0.00000000
Si       1.17605655       3.01029426       2.19843980       0.00000000
Si      -2.52281601       0.46898910       2.99715700       0.00000000
