10
Lattice="16.28999089631971 0.0 0.0 0.0 16.28999089631971 0.0 0.0 0.0 34.36671206372826" Properties=species:S:1:pos:R:3:initial_magmoms:R:1 pbc="T T T"
Si       2.11750452      -1.15186590      -0.28524387       0.00000000
Si       1.01603988       2.20460715       0.19059789       0.00000000
Si      -0.89754642      -0.76325166       2.18328407       0.00000000
Si      -1.24066269       1.35464382      -2.23988608       0.00000000
Si      -2.93505075       0.52299045      -0.12004299       0.00000000
Si       1.77028317       1.88061534       2.40231978       0.00000000
Si       0.89226846       0.02173086       3.53015205       0.00000000
Si      -2.99524230       0.66399669       2.21009012       0.00000000
Si      -2.51471988       2.72508894      -0.75270015       0.00000000
Si       2.07322830      -2.22141843      -2.45759932       0.00000000
