10
Lattice="16.28999089631971 0.0 0.0 0.0 16.28999089631971 0.0 0.0 0.0 34.36671206372826" Properties=species:S:1:pos:R:3:initial_magmoms:R:1 pbc="T T T"
Si      -1.35107631       1.30430772      -1.39872596       0.00000000
Si       1.33957557      -1.42304553      -1.37948059       0.00000000
Si      -1.92608073      -0.83543265       1.14716149       0.00000000
Si       1.74824280       0.57700809       1.73785687       0.00000000
Si      -0.47009682      -1.21497336       2.91522671       0.00000000
Si       2.47290345       2.38790223       0.08619176       0.00000000
Si      -2.80854261       2.51328636      -0.04876639       0.00000000
Si      -2.64306879      -2.75059908       0.04295841       0.00000000
Si      -0.01451439       2.66058054      -2.74208712       0.00000000
Si       2.70497153      -0.05755257      -2.74665790       0.00000000
