10
Lattice="16.28999089631971 0.0 0.0 0.0 16.28999089631971 0.0 0.0 0.0 34.36671206372826" Properties=species:S:1:pos:R:3:initial_magmoms:R:1 pbc="T T T"
Si       2.30311345      -0.13572828       0.51842214       0.00000000
Si      -0.90225423      -1.74640203       1.38638831       0.00000000
Si      -0.09034434       2.25795690       1.03141434       0.00000000
Si      -0.27956898      -1.08590769      -2.62623687       0.00000000
Si      -0.17097984      -0.96128919       3.49519967       0.00000000
Si       2.47457222      -2.48541417       1.19537801       0.00000000
Si      -2.05374546       3.19168341       0.24510353       0.00000000
Si       0.32824350      -3.72575106       0.92542734       0.00000000
Si       2.93031755       1.70974953       1.95326754       0.00000000
Si      -3.11828067      -2.30511645       0.72293856       0.00000000
