10
Lattice="16.28999089631971 0.0 0.0 0.0 16.28999089631971 0.0 0.0 0.0 34.36671206372826" Properties=species:S:1:pos:R:3:initial_magmoms:R:1 pbc="T T T"
Si      -1.00307304       2.11339944      -0.14956401       0.00000000
Si       0.14230944      -0.21978468      -2.34559814       0.00000000
Si      -1.78880490      -1.06189623       1.18094399       0.00000000
Si       2.09587140       0.02818170       1.20338546       0.00000000
Si       1.55040075       1.70336385      -2.88433102       0.00000000
Si      -3.73879935      -0.44984835      -0.06660273       0.00000000
Si       1.73221344      -1.85930802      -2.78284606       0.00000000
Si       1.68013431      -1.32271542       3.10685561       0.00000000
Si      -3.27715704       1.74838941      -0.75094744       0.00000000
Si      -1.97908839       0.11515401       3.24177939       0.00000000
