10
Lattice="16.28999089631971 0.0 0.0 0.0 16.28999089631971 0.0 0.0 0.0 34.36671206372826" Properties=species:S:1:pos:R:3:initial_magmoms:R:1 pbc="T T T"
Si       1.23543360      -1.36879983       1.46890283       0.00000000
Si      -1.14189642      -1.85091867      -0.96751043       0.00000000
Si       1.39916995       1.20418938      -1.63629084       0.00000000
Si      -1.50179139       1.33279893       1.45251677       0.00000000
Si      -0.50415921       2.19913371      -2.70234685       0.00000000
Si       2.50888221       2.67274917      -0.07593673       0.00000000
Si       0.63959427      -3.59748360      -1.04791587       0.00000000
Si       2.55004379      -2.82346425       0.04371792       0.00000000
Si       2.57196850      -0.01353699       2.83322082       0.00000000
Si      -0.14364522       2.70682785       2.83404562       0.00000000
