10
Lattice="16.28999089631971 0.0 0.0 0.0 16.28999089631971 0.0 0.0 0.0 34.36671206372826" Properties=species:S:1:pos:R:3:initial_magmoms:R:1 pbc="T T T"
Si       1.14244865      -1.49797953       1.37734986       0.00000000
Si      -1.33456633      -1.36106208      -1.36130059       0.00000000
Si       1.38068990       1.35332433      -1.35604248       0.00000000
Si      -1.56663441       1.08439272       1.47154907       0.00000000
Si       0.35332847       2.01938985       2.47859739       0.00000000
Si       2.15611019       0.30804390       2.45141331       0.00000000
Si      -2.69673687       2.71028133       0.03907497       0.00000000
Si      -2.69228970      -0.00702099      -2.71517797       0.00000000
Si       0.02296238       2.70938538      -2.71593404       0.00000000
Si      -2.69996229      -2.72655504       0.00587671       0.00000000
