10
Lattice="16.28999089631971 0.0 0.0 0.0 16.28999089631971 0.0 0.0 0.0 34.36671206372826" Properties=species:S:1:pos:R:3:initial_magmoms:R:1 pbc="T T T"
Si      -1.96340112       0.93372651      -0.78631081       0.00000000
Si      -0.26244819       0.34342578       2.36230037       0.00000000
Si       0.09034434      -2.25795690      -1.03141434       0.00000000
Si       2.09071629       1.43765766      -0.00622038       0.00000000
Si       3.02066189      -0.54820737       0.92185320       0.00000000
Si       0.90443010       2.72332962       1.70685808       0.00000000
Si       2.39345779      -2.39368518      -0.51299220       0.00000000
Si       1.98788077      -0.31286574       3.06661216       0.00000000
Si      -1.67053950      -1.57972275       2.90103325       0.00000000
Si       0.92969443       3.25194012      -1.76397558       0.00000000
