10
Lattice="16.28999089631971 0.0 0.0 0.0 16.28999089631971 0.0 0.0 0.0 34.36671206372826" Properties=species:S:1:pos:R:3:initial_magmoms:R:1 pbc="T T T"
Si      -1.17323838       1.73006316       1.05224058       0.00000000
Si       2.17880379       0.76709610      -0.48343681       0.00000000
Si      -1.19948157      -0.83447154      -1.89542833       0.00000000
Si       0.18225252      -1.13412609       2.28129799       0.00000000
Si       1.68839334      -2.71099809       1.01185967       0.00000000
Si       0.04671972       0.22879305      -3.52028738       0.00000000
Si      -2.33909739      -1.16903556       2.42965917       0.00000000
Si       2.26688382       0.57394557      -2.82686985       0.00000000
Si      -3.31288101       0.77823846       1.43103069       0.00000000
Si      -1.66128678       3.40985538      -0.49628997       0.00000000
