10
Lattice="16.28999089631971 0.0 0.0 0.0 16.28999089631971 0.0 0.0 0.0 34.36671206372826" Properties=species:S:1:pos:R:3:initial_magmoms:R:1 pbc="T T T"
Si       0.31977270      -2.18743749      -0.84480299       0.00000000
Si      -1.23823548      -0.84377313       1.87147472       0.00000000
Si       2.05314273       1.24149348       0.25857529       0.00000000
Si      -1.45862289       1.40032098      -1.49450604       0.00000000
Si       0.54669240      -1.11707046       3.38240806       0.00000000
Si       3.18760392      -0.39783438       1.64836590       0.00000000
Si       3.21286825       0.13077612      -1.82246776       0.00000000
Si       1.22567589       3.48014673       0.97061959       0.00000000
Si      -2.17882008       3.15794682      -0.10145059       0.00000000
Si       2.28317382      -3.12116400      -0.05849218       0.00000000
