10
Lattice="16.28999089631971 0.0 0.0 0.0 16.28999089631971 0.0 0.0 0.0 34.36671206372826" Properties=species:S:1:pos:R:3:initial_magmoms:R:1 pbc="T T T"
Si      -0.63175878       1.82026089      -1.29359813       0.00000000
Si       2.20488408       0.64917279       0.58145073       0.00000000
Si      -0.01244556      -2.28190320      -0.80349418       0.00000000
Si      -1.78844652      -0.10598274       1.66936397       0.00000000
Si       1.90531098       0.42044490       2.87140913       0.00000000
Si      -1.02107349      -2.10196386       2.63647816       0.00000000
Si      -1.79737344      -2.00860587      -2.31442752       0.00000000
Si      -0.66919320       3.68414870       0.15746836       0.00000000
Si      -1.09188612      -3.53253537       0.85267297       0.00000000
Si       3.71323938      -0.87615765      -0.50625632       0.00000000
