10
Lattice="16.28999089631971 0.0 0.0 0.0 16.28999089631971 0.0 0.0 0.0 34.36671206372826" Properties=species:S:1:pos:R:3:initial_magmoms:R:1 pbc="T T T"
Si       0.29957310       0.22872789      -2.28995840       0.00000000
Si       2.14989460       0.30248901       0.82895992       0.00000000
Si      -0.70622037      -2.17725624       0.45848656       0.00000000
Si      -1.44674748       1.79225838       0.72451943       0.00000000
Si       0.96594066       2.48061744      -1.91615147       0.00000000
Si      -1.90531098      -0.42044490      -2.87140913       0.00000000
Si      -0.79430040      -1.98410571       2.80191960       0.00000000
Si       1.77272734       0.55677591       3.15318196       0.00000000
Si       2.90247794       2.22736967      -0.45377832       0.00000000
Si      -1.01283075       3.46631719      -0.97003536       0.00000000
