10
Lattice="16.28999089631971 0.0 0.0 0.0 16.28999089631971 0.0 0.0 0.0 34.36671206372826" Properties=species:S:1:pos:R:3:initial_magmoms:R:1 pbc="T T T"
Si      -0.91577330      -0.14102253       2.15895243       0.00000000
Si      -1.20540624       2.01451914      -0.46082350       0.00000000
Si      -0.38830473      -2.15085015      -1.04114012       0.00000000
Si       2.33789193       0.63700416      -0.30246160       0.00000000
Si      -0.17262513       1.77917751      -2.60558246       0.00000000
Si      -3.27392252      -0.89186121      -1.06365033       0.00000000
Si      -1.05701249      -2.44636704       2.49512779       0.00000000
Si       2.18507544       1.59158187      -2.50780911       0.00000000
Si       0.86465691       0.42826410       3.58314414       0.00000000
Si      -1.76763116      -3.29354478       0.44443057       0.00000000
