10
Lattice="16.28999089631971 0.0 0.0 0.0 16.28999089631971 0.0 0.0 0.0 34.36671206372826" Properties=species:S:1:pos:R:3:initial_magmoms:R:1 pbc="T T T"
Si       1.42671078       1.80232560      -0.34126164       0.00000000
Si      -0.70294608       0.80198928       2.08269265       0.00000000
Si      -1.78043021      -0.56928663      -1.42419171       0.00000000
Si       1.37894850      -1.89382653       0.29118931       0.00000000
Si       0.84921399      -2.23879986       2.52327414       0.00000000
Si      -1.92166940      -2.87463114      -1.08801635       0.00000000
Si      -0.86465691      -0.42826410      -3.58314414       0.00000000
Si      -1.49319027       3.02306562       1.73332046       0.00000000
Si       2.65548177       2.04840234       1.77456054       0.00000000
Si      -2.48711159      -0.52707924       2.82089004       0.00000000
