10
Lattice="16.28999089631971 0.0 0.0 0.0 16.28999089631971 0.0 0.0 0.0 34.36671206372826" Properties=species:S:1:pos:R:3:initial_magmoms:R:1 pbc="T T T"
Si       0.37229818      -0.77537142      -2.22308075       0.00000000
Si       1.01122944       2.14708716       0.62544014       0.00000000
Si       2.14092302      -1.05085161       0.65537357       0.00000000
Si      -2.30196989       0.89507034      -0.74153096       0.00000000
Si      -1.75957805      -1.51826058       1.19194134       0.00000000
Si       1.36258682      -3.34093239       0.36332508       0.00000000
Si       2.15646368       0.55369710      -2.96127813       0.00000000
Si       0.23951187       3.46120146      -1.34088675       0.00000000
Si       3.45946820      -0.51104988      -1.28909609       0.00000000
Si      -3.54810602       0.16702137       1.24283847       0.00000000
