10
Lattice="16.28999089631971 0.0 0.0 0.0 16.28999089631971 0.0 0.0 0.0 34.36671206372826" Properties=species:S:1:pos:R:3:initial_magmoms:R:1 pbc="T T T"
Si      -1.77974766      -0.63294795       1.47044043       0.00000000
Si       1.86735528      -1.62088758       0.31931131       0.00000000
Si       0.85866219       1.92238290       1.35423621       0.00000000
Si      -0.54393939      -0.61556652      -2.36948302       0.00000000
Si      -0.42754734      -1.90290006       2.91812524       0.00000000
Si       0.94719834      -3.26057382       1.67704291       0.00000000
Si       2.31304968       0.81430452       2.89281071       0.00000000
Si      -1.67363297       2.58237225      -2.39941644       0.00000000
Si      -3.69019718      -1.40696730       0.37880665       0.00000000
Si       3.66683013      -0.51640929       1.45406469       0.00000000
