10
Lattice="16.28999089631971 0.0 0.0 0.0 16.28999089631971 0.0 0.0 0.0 34.36671206372826" Properties=species:S:1:pos:R:3:initial_magmoms:R:1 pbc="T T T"
Si      -1.35614413       1.35523026      -1.35923859       0.00000000
Si      -1.35682342      -1.35821133       1.35707348       0.00000000
Si       1.35837423       1.35658233       1.35724532       0.00000000
Si       1.36270737      -1.35641943      -1.35858562       0.00000000
Si      -2.69267903      -0.00003258      -2.72355658       0.00000000
Si      -0.02586852      -2.72464911      -2.70105668       0.00000000
Si      -2.71600766       2.71176372      -0.00030930       0.00000000
Si       0.00105885       2.71412577       2.71449064       0.00000000
Si      -2.71435317      -0.00096111       2.71428444       0.00000000
Si       2.71549413       2.71316466       0.00185580       0.00000000
