10
Lattice="16.28999089631971 0.0 0.0 0.0 16.28999089631971 0.0 0.0 0.0 34.36671206372826" Properties=species:S:1:pos:R:3:initial_magmoms:R:1 pbc="T T T"
Si       1.35682668       1.35076680      -1.35525205       0.00000000
Si       1.24514244      -1.46794077       1.34569810       0.00000000
Si      -1.36089918      -1.36272366      -1.35264018       0.00000000
Si      -1.45681470       1.24160751       1.39700763       0.00000000
Si      -0.58547889      -2.40800409       2.45481561       0.00000000
Si      -2.38826061      -0.69665814       2.48199970       0.00000000
Si       2.70327663       2.70013266       0.04718552       0.00000000
Si      -0.00371412       2.70702333      -2.71160383       0.00000000
Si       2.70925506      -0.00798210      -2.71242863       0.00000000
Si      -2.71862670      -0.00666261      -2.71253173       0.00000000
