10
Lattice="16.28999089631971 0.0 0.0 0.0 16.28999089631971 0.0 0.0 0.0 34.36671206372826" Properties=species:S:1:pos:R:3:initial_magmoms:R:1 pbc="T T T"
Si      -1.19780370      -1.42302924      -1.50065769       0.00000000
Si      -1.39711185       1.39642767       1.35793265       0.00000000
Si       1.49558490       1.35229806      -1.35652362       0.00000000
Si       0.90039717      -2.06524620       0.95505146       0.00000000
Si       2.51695161      -1.05269238       2.41543134       0.00000000
Si      -2.47983973       0.04478121      -2.87024066       0.00000000
Si      -2.47154323       2.88412821      -0.08172409       0.00000000
Si       0.25901100      -2.66463675      -2.89766531       0.00000000
Si      -0.23576517       2.18015586       3.32419082       0.00000000
Si       0.26207352       2.74611933      -2.88663359       0.00000000
