10
Lattice="16.28999089631971 0.0 0.0 0.0 16.28999089631971 0.0 0.0 0.0 34.36671206372826" Properties=species:S:1:pos:R:3:initial_magmoms:R:1 pbc="T T T"
Si       2.00444866       0.47884455       1.11306969       0.00000000
Si      -0.30365700       2.09515464      -1.11111079       0.00000000
Si      -1.21881128      -0.43567605       2.05870467       0.00000000
Si      -0.30497975      -1.62755019      -1.78263672       0.00000000
Si      -2.00983806      -2.64644082       1.60076798       0.00000000
Si      -2.55530871      -0.97125867      -2.48694851       0.00000000
Si      -1.38843042       1.40864517      -3.14239081       0.00000000
Si       1.40520472       1.75104468       3.00286188       0.00000000
Si       1.91320837       2.61610884      -1.92165015       0.00000000
Si       3.44743315       1.65475449      -0.29091438       0.00000000
