10
Lattice="16.28999089631971 0.0 0.0 0.0 16.28999089631971 0.0 0.0 0.0 34.36671206372826" Properties=species:S:1:pos:R:3:initial_magmoms:R:1 pbc="T T T"
Si      -1.35904212       1.35974259      -1.35284638       0.00000000
Si       1.35751086       1.35674523       1.35824195       0.00000000
Si      -1.35758254      -1.35960738       1.35748589       0.00000000
Si       1.35879777      -1.36190753      -1.36140369       0.00000000
Si      -0.02676447       2.70479160      -2.70019751       0.00000000
Si       2.71409319       2.71150308       0.00202764       0.00000000
Si      -0.00060273       2.71332756       2.71469684       0.00000000
Si      -2.71582707       2.71322982       0.00130594       0.00000000
Si      -0.00832419      -2.70269592      -2.72662209       0.00000000
Si      -2.71488872      -0.00130320       2.71504050       0.00000000
