10
Lattice="16.28999089631971 0.0 0.0 0.0 16.28999089631971 0.0 0.0 0.0 34.36671206372826" Properties=species:S:1:pos:R:3:initial_magmoms:R:1 pbc="T T T"
Si      -1.90332916       0.99494433      -1.06605600       0.00000000
Si       1.10971227       1.46855979       1.56035411       0.00000000
Si      -1.39916995      -1.20418938       1.63629084       0.00000000
Si       1.25698853      -0.81233343      -2.18984812       0.00000000
Si      -3.04931437       2.48156973       0.47678311       0.00000000
Si       1.98221770       3.40575030       0.48415236       0.00000000
Si       2.52716707       0.12961953       3.06906736       0.00000000
Si      -1.46239144       3.23802846      -1.82294889       0.00000000
Si      -2.54106637      -3.05510805       0.66878041       0.00000000
Si      -0.16373635      -2.57298921       3.10519367       0.00000000
