10
Lattice="16.28999089631971 0.0 0.0 0.0 16.28999089631971 0.0 0.0 0.0 34.69518985606464" Properties=species:S:1:pos:R:3:initial_magmoms:R:1 pbc="T T T"
Si       0.84310524      -2.01756537      -1.02482709       0.00000000
Si      -0.05170446      -0.96778890       2.22621810       0.00000000
Si       1.49234319       1.76272461      -0.79975927       0.00000000
Si      -2.30918732       0.92766663      -0.20116282       0.00000000
Si      -0.10689498       0.98793963       3.58998269       0.00000000
Si       2.74952394      -1.36984239      -2.27878134       0.00000000
Si       3.48135219       0.70721406      -1.47499743       0.00000000
Si      -0.65567250      -2.76465735      -2.63811963       0.00000000
Si      -1.56778218      -2.90758581       2.21851576       0.00000000
Si       0.93501342       2.27274822      -3.17298097       0.00000000
