10
Lattice="16.28999089631971 0.0 0.0 0.0 16.28999089631971 0.0 0.0 0.0 34.69518985606464" Properties=species:S:1:pos:R:3:initial_magmoms:R:1 pbc="T T T"
Si      -1.35922131       1.35440599       1.36348703       0.00000000
Si       1.35584928      -1.36289247       1.36272373       0.00000000
Si      -1.35250983      -1.36269175      -1.38689589       0.00000000
Si       1.35529542       1.35121315      -1.39572235       0.00000000
Si      -2.71150308       2.71351327       0.00232458       0.00000000
Si       2.72012049       2.71069510       0.00128372       0.00000000
Si       2.71707426      -2.71441966       0.00683496       0.00000000
Si      -2.71546155      -2.71697719      -0.00374708       0.00000000
Si      -0.00043983       2.71292683       2.72041666       0.00000000
Si      -2.71492724      -0.00220404       2.72013910       0.00000000
