10
Lattice="16.28999089631971 0.0 0.0 0.0 16.28999089631971 0.0 0.0 0.0 34.69518985606464" Properties=species:S:1:pos:R:3:initial_magmoms:R:1 pbc="T T T"
Si       1.34635221      -1.19177218       1.53985319       0.00000000
Si       1.87046667       0.93448725      -1.23356531       0.00000000
Si      -0.97906158      -1.72957024      -1.43313215       0.00000000
Si      -1.35923760       1.52293092       1.49369815       0.00000000
Si       2.46917304      -2.72941786       0.18125471       0.00000000
Si      -2.73199590      -2.58888403       0.01059245       0.00000000
Si       0.00254124      -2.54270188       2.89625545       0.00000000
Si       3.53981700      -1.04948618      -1.13480292       0.00000000
Si       2.72046258       2.80689243       0.09053715       0.00000000
Si       0.68044959      -3.70294084      -1.14035416       0.00000000
