10
Lattice="16.28999089631971 0.0 0.0 0.0 16.28999089631971 0.0 0.0 0.0 34.69518985606464" Properties=species:S:1:pos:R:3:initial_magmoms:R:1 pbc="T T T"
Si       1.35624024       1.35591444       1.35731128       0.00000000
Si      -1.35773892       1.35754344      -1.35751945       0.00000000
Si       1.35821133      -1.35829115      -1.35765823       0.00000000
Si      -1.36076886      -1.36128525       1.35703372       0.00000000
Si      -0.00050499      -2.71055367       2.71493482       0.00000000
Si       2.71404432      -0.00260640      -2.71396335       0.00000000
Si      -2.71321353       2.71497285      -0.00045104       0.00000000
Si      -0.00138465       2.71350675      -2.71562872       0.00000000
Si       2.71539639       2.71453302       0.00027756       0.00000000
Si       2.71477737      -2.71516606      -0.00034695       0.00000000
