10
Lattice="16.28999089631971 0.0 0.0 0.0 16.28999089631971 0.0 0.0 0.0 34.69518985606464" Properties=species:S:1:pos:R:3:initial_magmoms:R:1 pbc="T T T"
Si       1.27156482      -1.41007706      -1.41979735       0.00000000
Si      -1.43804862       1.34286615      -1.39304735       0.00000000
Si      -1.88768520      -0.83562813       1.33392671       0.00000000
Si       1.62386865       0.36328329       1.95653224       0.00000000
Si       2.25761481      -3.08979665      -0.05384696       0.00000000
Si       2.63581974      -0.02516805      -2.77998834       0.00000000
Si       3.34836063      -1.38620081       1.24843771       0.00000000
Si      -0.96291819       3.45866022       1.36529118       0.00000000
Si      -0.07921827       2.68149690      -2.77755967       0.00000000
Si      -2.76977241      -2.75251220       0.11838005       0.00000000
