10
Lattice="16.28999089631971 0.0 0.0 0.0 16.28999089631971 0.0 0.0 0.0 34.69518985606464" Properties=species:S:1:pos:R:3:initial_magmoms:R:1 pbc="T T T"
Si      -2.11998060       0.69521322       0.82876446       0.00000000
Si      -0.64975923      -1.34634799      -1.87409642       0.00000000
Si       0.83101806       2.14755468      -0.78352191       0.00000000
Si       1.33014366      -1.03387321       1.77295989       0.00000000
Si      -2.91683853       1.54702383      -1.22973700       0.00000000
Si      -1.21393080       3.16708062      -1.49133887       0.00000000
Si      -2.52294633      -0.22998874      -2.80680773       0.00000000
Si       1.34389242       3.42167703       1.20506870       0.00000000
Si      -3.60251069      -1.15127524       0.83355240       0.00000000
Si      -1.50159591      -3.46544893      -1.11531220       0.00000000
