10
Lattice="16.28999089631971 0.0 0.0 0.0 16.28999089631971 0.0 0.0 0.0 34.69518985606464" Properties=species:S:1:pos:R:3:initial_magmoms:R:1 pbc="T T T"
Si       1.33736013       1.35027810      -1.38200039       0.00000000
Si       1.35122292      -1.35791811       1.36268904       0.00000000
Si      -1.36420605       1.35819504       1.36102367       0.00000000
Si      -1.36482507      -1.35948195      -1.39700607       0.00000000
Si       2.70982521      -2.71034160       0.00503081       0.00000000
Si       2.71059084       0.00149868       2.71857782       0.00000000
Si       2.71223613       2.71722087       0.00215110       0.00000000
Si      -2.72012049      -2.71069510      -0.00128372       0.00000000
Si      -0.00461007      -2.71360286       2.71899416       0.00000000
Si      -0.00506619       2.71718829       2.71878599       0.00000000
