10
Lattice="16.28999089631971 0.0 0.0 0.0 16.28999089631971 0.0 0.0 0.0 34.69518985606464" Properties=species:S:1:pos:R:3:initial_magmoms:R:1 pbc="T T T"
Si       1.35599589       1.35495333      -1.35748476       0.00000000
Si      -1.35698958       1.35707103       1.35616634       0.00000000
Si       1.35764118      -1.35796698       1.35814397       0.00000000
Si      -1.35913986      -1.35899325      -1.35776232       0.00000000
Si       0.00017919       2.71217097       2.71084078       0.00000000
Si      -2.71503801       0.00255753       2.71281841       0.00000000
Si       2.71316466      -0.00330687       2.71521238       0.00000000
Si      -2.71489140       2.71456560       0.00045104       0.00000000
Si      -2.71516833       0.00003258      -2.71434500       0.00000000
Si       2.71498914       2.71453302       0.00006939       0.00000000
