10
Lattice="16.28999089631971 0.0 0.0 0.0 16.28999089631971 0.0 0.0 0.0 34.69518985606464" Properties=species:S:1:pos:R:3:initial_magmoms:R:1 pbc="T T T"
Si      -0.44448894      -0.11898216       2.24977615       0.00000000
Si       0.80995509       1.79584218      -1.27255088       0.00000000
Si      -1.93456782      -0.83961918      -1.19129470       0.00000000
Si      -0.47513043      -2.11579407      -2.75833853       0.00000000
Si       2.25175041       0.59093604      -2.77155740       0.00000000
Si      -2.66856264       0.57041064       2.69515855       0.00000000
Si       0.96291819      -3.45866022      -1.36529118       0.00000000
Si      -3.01653985      -2.68278381      -0.03237063       0.00000000
Si       1.30953681       3.81835971      -0.17670270       0.00000000
Si       1.38533418       0.19236861       3.81695875       0.00000000
