10
Lattice="16.28999089631971 0.0 0.0 0.0 16.28999089631971 0.0 0.0 0.0 34.69518985606464" Properties=species:S:1:pos:R:3:initial_magmoms:R:1 pbc="T T T"
Si       0.06887412      -2.12527485       0.89215261       0.00000000
Si      -0.38419965       1.57050261       1.71599035       0.00000000
Si      -1.82982312      -0.31135077      -1.56718260       0.00000000
Si       2.36517768       0.65381544      -0.10942869       0.00000000
Si       0.28154007       3.62323809       0.54006563       0.00000000
Si      -1.71481572      -2.24093385       2.56588420       0.00000000
Si       2.12323860      -2.43190152       2.14301899       0.00000000
Si      -2.61605997       1.52772507       2.48598113       0.00000000
Si       0.21405060      -3.81023100      -0.93149698       0.00000000
Si       0.96958080       1.01247237       3.70912604       0.00000000
