10
Lattice="16.28999089631971 0.0 0.0 0.0 16.28999089631971 0.0 0.0 0.0 34.69518985606464" Properties=species:S:1:pos:R:3:initial_magmoms:R:1 pbc="T T T"
Si      -0.07716573       1.96395498      -1.30589298       0.00000000
Si       2.13203520       0.07218099       1.01566756       0.00000000
Si      -1.79533719       0.41124105       1.48446922       0.00000000
Si      -0.51139197      -2.30141862      -0.58721642       0.00000000
Si      -1.81902285       1.20057300      -2.73151913       0.00000000
Si       2.01337884      -2.04027363       2.23593276       0.00000000
Si      -0.35821710       3.69701550       0.41318525       0.00000000
Si       1.22148936      -3.52332989       0.51831173       0.00000000
Si      -1.73491758      -1.16190054       3.25829649       0.00000000
Si      -1.74283452       2.75514399       2.12980011       0.00000000
