10
Lattice="16.28999089631971 0.0 0.0 0.0 16.28999089631971 0.0 0.0 0.0 34.69518985606464" Properties=species:S:1:pos:R:3:initial_magmoms:R:1 pbc="T T T"
Si       2.10776310       0.18041175      -1.09761764       0.00000000
Si      -0.70706745      -2.12100687       0.82793178       0.00000000
Si      -2.07379845       0.81282213      -0.99710562       0.00000000
Si       0.38024118       1.78054587       1.82364959       0.00000000
Si       1.17607284       0.93481794      -3.08391837       0.00000000
Si      -2.75390595      -1.50249186       1.86642878       0.00000000
Si       1.49894064       3.39706773       0.40513596       0.00000000
Si      -3.66140556      -0.72752769      -0.24401141       0.00000000
Si      -1.21994181      -3.39512922      -1.16065883       0.00000000
Si      -2.72368800       2.61615771       0.36079548       0.00000000
