10
Lattice="16.28999089631971 0.0 0.0 0.0 16.28999089631971 0.0 0.0 0.0 34.69518985606464" Properties=species:S:1:pos:R:3:initial_magmoms:R:1 pbc="T T T"
Si      -2.09976471       0.79159626       0.75812502       0.00000000
Si       1.11376359      -0.23871366       2.12490809       0.00000000
Si       1.11869946       1.61652186      -1.41851363       0.00000000
Si      -0.38024118      -1.78054587      -1.82364959       0.00000000
Si      -3.10392918       0.83561184      -1.46285411       0.00000000
Si       2.93304708       0.27510552      -2.13011237       0.00000000
Si       1.72752192      -1.60013412      -2.92126723       0.00000000
Si      -0.60038424      -1.17792990       3.52545797       0.00000000
Si      -2.61190602      -1.88840196       2.07869407       0.00000000
Si      -2.45403963      -0.96772374      -2.82075521       0.00000000
