10
Lattice="16.28999089631971 0.0 0.0 0.0 16.28999089631971 0.0 0.0 0.0 34.69518985606464" Properties=species:S:1:pos:R:3:initial_magmoms:R:1 pbc="T T T"
Si      -1.10843676       1.57029084       1.39163525       0.00000000
Si       0.94874589       1.77420906      -1.26874031       0.00000000
Si       1.61606574      -1.15500987       1.37820474       0.00000000
Si      -1.55905074      -1.39049811      -1.47946413       0.00000000
Si      -2.44521045       0.22072950       2.76748765       0.00000000
Si       0.27165204      -2.49805521       2.76433039       0.00000000
Si      -2.62539414      -2.71518462       0.11292944       0.00000000
Si      -2.46369960       2.88826587      -0.11779370       0.00000000
Si       2.73746934       2.74773204       0.05286856       0.00000000
Si       2.84868117      -2.64782547      -0.10190330       0.00000000
