10
Lattice="16.28999089631971 0.0 0.0 0.0 16.28999089631971 0.0 0.0 0.0 34.69518985606464" Properties=species:S:1:pos:R:3:initial_magmoms:R:1 pbc="T T T"
Si      -0.63819333      -1.00359106      -2.04538667       0.00000000
Si      -0.34093341      -1.19149784       2.04139672       0.00000000
Si      -2.00715117       1.25456132       0.35281558       0.00000000
Si       2.19160773       1.06605344      -0.48864733       0.00000000
Si      -1.81874266       0.71441750      -3.16097643       0.00000000
Si      -1.24293189       3.44154269       0.74494084       0.00000000
Si      -0.73482561       0.58551473       3.61846746       0.00000000
Si       2.45560347       0.77785076      -2.83064334       0.00000000
Si       1.12982553      -0.98295978      -3.57641686       0.00000000
Si      -3.23555957       1.66366838      -1.59351627       0.00000000
