10
Lattice="16.28999089631971 0.0 0.0 0.0 16.28999089631971 0.0 0.0 0.0 34.69518985606464" Properties=species:S:1:pos:R:3:initial_magmoms:R:1 pbc="T T T"
Si      -1.36111095      -1.34340372      -1.36997503       0.00000000
Si       1.34890974       1.37630952      -1.37018320       0.00000000
Si      -1.72949301       0.97511940       1.30367249       0.00000000
Si       1.23026967      -1.51641981       1.39762711       0.00000000
Si      -0.94442904      -2.17867347       2.60259173       0.00000000
Si      -0.60751926       2.26753542       2.96519136       0.00000000
Si       2.69431713       2.70606222       0.02140694       0.00000000
Si       2.69992089      -2.72235222      -0.00891667       0.00000000
Si       2.69996976       0.01202202      -2.72739040       0.00000000
Si      -0.00990432      -2.70215262      -2.73207425       0.00000000
