10
Lattice="16.28999089631971 0.0 0.0 0.0 16.28999089631971 0.0 0.0 0.0 34.69518985606464" Properties=species:S:1:pos:R:3:initial_magmoms:R:1 pbc="T T T"
Si       1.72949301      -0.97511940      -1.30367249       0.00000000
Si       1.12197375       1.29241602       1.66151888       0.00000000
Si      -1.00398528       1.74403998      -1.29492929       0.00000000
Si      -1.20689352      -1.70526978       1.39596174       0.00000000
Si       0.78506397      -3.15379287       1.29891924       0.00000000
Si       0.36838206      -2.31852312      -2.67364752       0.00000000
Si      -2.35528965       0.40262364      -2.67281483       0.00000000
Si       2.28307608      -0.53991576       2.73932555       0.00000000
Si       2.69606016       2.76938145       0.05648380       0.00000000
Si       2.95976268      -2.49153921       0.09395463       0.00000000
