10
Lattice="16.28999089631971 0.0 0.0 0.0 16.28999089631971 0.0 0.0 0.0 34.69518985606464" Properties=species:S:1:pos:R:3:initial_magmoms:R:1 pbc="T T T"
Si       1.57936437      -0.01265733      -1.74034639       0.00000000
Si      -1.87318710       1.11635926      -0.93271131       0.00000000
Si       0.64975923       1.34634799       1.87409642       0.00000000
Si      -0.85183668      -2.11910094       0.75878423       0.00000000
Si      -3.03215381      -1.50255702       1.02774149       0.00000000
Si       3.37015665      -1.22544783      -0.73494862       0.00000000
Si      -1.47022137       2.04156121       2.70286089       0.00000000
Si      -3.49776111      -0.63651546      -1.10903236       0.00000000
Si      -2.26707930       2.89337183       0.64435943       0.00000000
Si       0.74740149      -1.34431596      -3.63095773       0.00000000
