10
Lattice="16.28999089631971 0.0 0.0 0.0 16.28999089631971 0.0 0.0 0.0 34.69518985606464" Properties=species:S:1:pos:R:3:initial_magmoms:R:1 pbc="T T T"
Si       1.34675946      -1.28474343       1.44494097       0.00000000
Si       1.75583394       1.00903518      -1.26115025       0.00000000
Si      -1.37751498       1.42579854       1.41816668       0.00000000
Si      -0.84999591      -1.87240518      -1.32410245       0.00000000
Si       3.20313528      -0.98174943      -1.44827661       0.00000000
Si       2.51957430      -2.76933095       0.03273146       0.00000000
Si       2.69312796       2.74665690       0.02915785       0.00000000
Si      -0.00504990      -2.63482116       2.80519788       0.00000000
Si      -1.13924115      -0.94560192      -3.57630727       0.00000000
Si       2.70946683       0.07669332       2.80294269       0.00000000
