10
Lattice="16.28999089631971 0.0 0.0 0.0 16.28999089631971 0.0 0.0 0.0 34.69518985606464" Properties=species:S:1:pos:R:3:initial_magmoms:R:1 pbc="T T T"
Si      -1.07378793      -1.57369545      -1.33826361       0.00000000
Si       1.10120400      -1.19716839       1.80980620       0.00000000
Si       1.71766647       1.20272328      -1.28295945       0.00000000
Si      -2.66105295       0.76119912       0.73827936       0.00000000
Si      -1.15269669      -1.17463932       2.74099092       0.00000000
Si      -2.13535836       0.07094295      -2.65935309       0.00000000
Si       2.49750135       0.69234129       2.25345384       0.00000000
Si       2.69247636       2.38352022       0.53746349       0.00000000
Si      -1.85741838       2.54806551       2.05131955       0.00000000
Si      -2.95466391       1.95110217      -1.37771206       0.00000000
