10
Lattice="16.28999089631971 0.0 0.0 0.0 16.28999089631971 0.0 0.0 0.0 34.69518985606464" Properties=species:S:1:pos:R:3:initial_magmoms:R:1 pbc="T T T"
Si      -0.06861348      -2.42533991      -0.31468555       0.00000000
Si       0.28924524      -0.92680326       2.25220481       0.00000000
Si      -2.23425495       0.90712494      -0.97934167       0.00000000
Si       2.63726955       1.00359432      -1.18341889       0.00000000
Si       1.17674073      -2.43782293      -2.31736242       0.00000000
Si       2.32565814       2.76060114       0.20862229       0.00000000
Si      -1.52718750       3.02813181      -1.80727345       0.00000000
Si       1.13924115       0.94560192       3.57630727       0.00000000
Si      -2.74712931      -0.36699741      -2.96793228       0.00000000
Si       1.15035093      -0.66839499      -3.93079373       0.00000000
