10
Lattice="16.28999089631971 0.0 0.0 0.0 16.28999089631971 0.0 0.0 0.0 34.69518985606464" Properties=species:S:1:pos:R:3:initial_magmoms:R:1 pbc="T T T"
Si       0.68709591       1.94030190      -1.09402530       0.00000000
Si      -0.93729402      -1.73762172      -1.29030810       0.00000000
Si       1.38681657      -1.31110065       1.39416106       0.00000000
Si      -1.35954711       1.39245291       1.39621155       0.00000000
Si       2.49569316      -2.83405275      -0.11751961       0.00000000
Si      -1.50671097      -0.93165768      -3.39684283       0.00000000
Si      -2.69312796      -2.74665690      -0.02915785       0.00000000
Si       0.01633887      -2.66996358       2.77378483       0.00000000
Si      -2.83320567       2.61146619      -0.09321215       0.00000000
Si       2.64780918       2.80810278      -0.03152060       0.00000000
