10
Lattice="16.28999089631971 0.0 0.0 0.0 16.28999089631971 0.0 0.0 0.0 34.69518985606464" Properties=species:S:1:pos:R:3:initial_magmoms:R:1 pbc="T T T"
Si      -1.35552348      -1.35466011      -1.35706841       0.00000000
Si       1.35982404       1.35993807      -1.35769293       0.00000000
Si       1.36699164      -1.36010097       1.35276621       0.00000000
Si      -1.36291914       1.36725228       1.35158657       0.00000000
Si      -0.00316026       2.69527824       2.71878599       0.00000000
Si      -0.00084708      -2.70099603       2.71864721       0.00000000
Si       2.71458189      -2.71213839      -0.00291440       0.00000000
Si       0.00249237      -2.71238274      -2.71542055       0.00000000
Si      -2.71467963      -2.71327869      -0.00003470       0.00000000
Si      -2.71316466       0.00330687      -2.71521238       0.00000000
