10
Lattice="16.28999089631971 0.0 0.0 0.0 16.28999089631971 0.0 0.0 0.0 34.69518985606464" Properties=species:S:1:pos:R:3:initial_magmoms:R:1 pbc="T T T"
Si       1.03636980       1.80605601      -1.08308035       0.00000000
Si      -0.80363457      -1.78686639      -1.31304019       0.00000000
Si      -1.48362804       0.49065480       1.78520730       0.00000000
Si       0.63014607      -0.45450729       2.58586864       0.00000000
Si       2.88114714      -0.19091880       1.52128084       0.00000000
Si       0.56470914       1.17154422      -3.34312628       0.00000000
Si       0.10922445       3.60543312       0.26399585       0.00000000
Si      -1.09724553      -0.59696334      -3.42903162       0.00000000
Si       1.85741838      -2.54806551      -2.05131955       0.00000000
Si       0.70472169      -3.72270483       0.68967137       0.00000000
