10
Lattice="16.28999089631971 0.0 0.0 0.0 16.28999089631971 0.0 0.0 0.0 34.69518985606464" Properties=species:S:1:pos:R:3:initial_magmoms:R:1 pbc="T T T"
Si      -1.88514396       0.83237013      -1.26484855       0.00000000
Si       0.81930555      -1.88015922      -1.28164103       0.00000000
Si       1.66195467       1.76850756       0.08590534       0.00000000
Si       0.29361096      -1.18990305       2.11599142       0.00000000
Si       2.18714427      -0.53926416      -2.64752203       0.00000000
Si      -0.54276651       2.18808909      -2.64870166       0.00000000
Si       1.09724553       0.59696334       3.42903162       0.00000000
Si       2.95466391      -1.95110217       1.37771206       0.00000000
Si       3.51697842       0.82129293      -1.26186476       0.00000000
Si       0.81699237       3.51611505      -1.28150225       0.00000000
