10
Lattice="16.28999089631971 0.0 0.0 0.0 16.28999089631971 0.0 0.0 0.0 34.69518985606464" Properties=species:S:1:pos:R:3:initial_magmoms:R:1 pbc="T T T"
Si       0.05693355       1.87095537       1.36320947       0.00000000
Si      -1.41962463      -1.35708732       1.25128272       0.00000000
Si      -1.95918201       0.96609474      -1.07107580       0.00000000
Si       2.15257689      -0.63371358      -1.06032029       0.00000000
Si       2.52069831       1.68819786      -1.30086218       0.00000000
Si      -1.10801322      -3.11409414      -0.14075846       0.00000000
Si       2.02082337       2.89399995       0.71621320       0.00000000
Si      -1.10555343       1.99394487      -2.99437003       0.00000000
Si      -3.16470717      -0.90914490      -1.86223066       0.00000000
Si      -1.63598841      -2.68130142      -2.37863416       0.00000000
