10
Lattice="16.28999089631971 0.0 0.0 0.0 16.28999089631971 0.0 0.0 0.0 34.69518985606464" Properties=species:S:1:pos:R:3:initial_magmoms:R:1 pbc="T T T"
Si      -1.34441370      -1.34304534       1.38612565       0.00000000
Si       1.37132478       1.37135736       1.38432150       0.00000000
Si      -1.61606574       1.15500987      -1.37820474       0.00000000
Si       1.23261543      -1.49281560      -1.48010803       0.00000000
Si      -2.69247636      -2.71034649       0.03201327       0.00000000
Si       2.70627399      -2.71182888       0.00931566       0.00000000
Si       2.71349046       2.72702745       0.01913441       0.00000000
Si       0.00874773      -2.70327663       2.74541456       0.00000000
Si      -2.72450250       2.72530071       0.01343052       0.00000000
Si      -2.70664866       0.01275507       2.74617785       0.00000000
