10
Lattice="16.28999089631971 0.0 0.0 0.0 16.28999089631971 0.0 0.0 0.0 34.69518985606464" Properties=species:S:1:pos:R:3:initial_magmoms:R:1 pbc="T T T"
Si      -1.35599589      -1.35495333       1.35748476       0.00000000
Si      -1.35316143       1.36023129      -1.35928891       0.00000000
Si       1.36130643      -1.35492075      -1.35915013       0.00000000
Si       1.35899325       1.35957969       1.35755415       0.00000000
Si      -2.70122409      -0.00706986      -2.71340129       0.00000000
Si      -2.71298547       0.00211770       2.71365110       0.00000000
Si       2.71432125      -2.71397916       0.00072860       0.00000000
Si       0.00164529      -2.71292031       2.71562872       0.00000000
Si      -2.71513575      -2.71394658      -0.00027756       0.00000000
Si       2.71510317       2.71585251       0.00048573       0.00000000
