10
Lattice="16.28999089631971 0.0 0.0 0.0 16.28999089631971 0.0 0.0 0.0 34.69518985606464" Properties=species:S:1:pos:R:3:initial_magmoms:R:1 pbc="T T T"
Si      -1.35610992      -1.35627282       1.35706841       0.00000000
Si      -1.35252612       1.35878148      -1.36157879       0.00000000
Si       1.35909099       1.35936792       1.35696433       0.00000000
Si       1.35757602      -1.35682668      -1.36255026       0.00000000
Si      -2.71454931       0.00144981       2.71375518       0.00000000
Si       0.00188964      -2.71417464       2.71451848       0.00000000
Si       2.71622718       2.71404432      -0.00065921       0.00000000
Si      -2.71510317      -2.71585251      -0.00048573       0.00000000
Si       0.00184077       2.71639008       2.71496951       0.00000000
Si       2.71648782      -2.71494027      -0.00020817       0.00000000
