10
Lattice="16.28999089631971 0.0 0.0 0.0 16.28999089631971 0.0 0.0 0.0 34.69518985606464" Properties=species:S:1:pos:R:3:initial_magmoms:R:1 pbc="T T T"
Si      -1.35397593       1.35997065      -1.35665207       0.00000000
Si      -1.35604476      -1.35798327       1.35682555       0.00000000
Si       1.35905841       1.35746199       1.35682555       0.00000000
Si       1.36257705      -1.35812988      -1.36199513       0.00000000
Si      -0.01016496       2.71090035      -2.71305434       0.00000000
Si      -2.71520091       2.71149784      -0.00076329       0.00000000
Si      -2.71340901      -0.00052128       2.71358171       0.00000000
Si       0.00102627       2.71460764       2.71410213       0.00000000
Si       0.00055386      -2.71546155       2.71333884       0.00000000
Si       2.71538010       2.71429770       0.00072860       0.00000000
