10
Lattice="16.28999089631971 0.0 0.0 0.0 16.28999089631971 0.0 0.0 0.0 34.69518985606464" Properties=species:S:1:pos:R:3:initial_magmoms:R:1 pbc="T T T"
Si      -1.35350352      -1.35408996      -1.35876848       0.00000000
Si      -1.35106002       1.36428750       1.35720720       0.00000000
Si       1.36765953      -1.35200484       1.36157879       0.00000000
Si       1.36288656       1.36085031      -1.35755415       0.00000000
Si      -2.70987408      -2.71417464      -0.00468385       0.00000000
Si      -2.71010214       0.00338832      -2.71528177       0.00000000
Si       0.00493587      -2.71181259      -2.71545525       0.00000000
Si      -2.69996976      -0.01202202       2.72739040       0.00000000
Si      -2.71072116       2.71806795      -0.00058982       0.00000000
Si       2.71798650      -2.71228500       0.00117964       0.00000000
