10
Lattice="16.28999089631971 0.0 0.0 0.0 16.28999089631971 0.0 0.0 0.0 34.69518985606464" Properties=species:S:1:pos:R:3:initial_magmoms:R:1 pbc="T T T"
Si      -1.40141241      -0.34891551      -1.80168752       0.00000000
Si      -0.09534537       2.35730051      -0.17642514       0.00000000
Si      -1.61103213      -0.59096862       1.65818814       0.00000000
Si       2.16513648      -0.68450580      -0.76617431       0.00000000
Si       0.18357201      -0.29076021      -3.54321355       0.00000000
Si       2.26748655       0.50357277      -2.79424807       0.00000000
Si      -2.65241925      -2.27168937      -1.27969810       0.00000000
Si      -1.62430848       2.98467728       1.53470789       0.00000000
Si      -1.59791868       1.21524933       3.14813920       0.00000000
Si       3.68945694       0.21675474       0.73002190       0.00000000
