10
Lattice="16.28999089631971 0.0 0.0 0.0 16.28999089631971 0.0 0.0 0.0 34.69518985606464" Properties=species:S:1:pos:R:3:initial_magmoms:R:1 pbc="T T T"
Si      -1.20941847       0.14118543      -2.05118077       0.00000000
Si      -0.65414124      -2.12419971       0.89107706       0.00000000
Si       0.51833151       2.18093778       1.25391956       0.00000000
Si       2.52180603      -0.50090121       0.53048975       0.00000000
Si       3.02682861       0.12768102      -1.71082077       0.00000000
Si       2.20965705       0.87008148       2.63746042       0.00000000
Si       0.87863373       3.56854313      -0.78470155       0.00000000
Si      -0.20901699      -1.31888727      -3.61145903       0.00000000
Si       0.19212426      -2.33583939       3.14670078       0.00000000
Si      -1.38157119       2.26559691      -3.07659768       0.00000000
