10
Lattice="16.28999089631971 0.0 0.0 0.0 16.28999089631971 0.0 0.0 0.0 34.69518985606464" Properties=species:S:1:pos:R:3:initial_magmoms:R:1 pbc="T T T"
Si       2.18627831      -0.88190217      -0.21302858       0.00000000
Si      -1.48489866      -1.16526672      -1.44165533       0.00000000
Si      -0.45442584       2.33860543      -0.13621339       0.00000000
Si       1.85611259      -2.08039005       1.80408149       0.00000000
Si       0.88734888      -0.45474579       3.20444953       0.00000000
Si      -3.49922232      -0.15716950      -0.37758796       0.00000000
Si      -2.70966231       2.20478308       0.76360686       0.00000000
Si       0.73208889       2.84449138      -2.16019312       0.00000000
Si      -0.45893817      -0.65239236      -3.59765033       0.00000000
Si       3.66880841       0.96458629      -0.21781652       0.00000000
