10
Lattice="16.28999089631971 0.0 0.0 0.0 16.28999089631971 0.0 0.0 0.0 34.69518985606464" Properties=species:S:1:pos:R:3:initial_magmoms:R:1 pbc="T T T"
Si       1.35526311      -1.35682668       1.35800519       0.00000000
Si      -1.35959598       1.35728280       1.35786640       0.00000000
Si      -1.34729703      -1.35573525      -1.38056054       0.00000000
Si       1.33924472       1.35392706      -1.39023703       0.00000000
Si       2.53746465      -0.21978468      -2.80905598       0.00000000
Si       2.71343249       0.00105885       2.71510829       0.00000000
Si      -0.00210141      -2.71415835       2.71493482       0.00000000
Si       2.71625066      -2.71295289      -0.00267153       0.00000000
Si      -0.00192222       2.71673217       2.71483073       0.00000000
Si      -2.71777473      -2.71459818      -0.00093677       0.00000000
