10
Lattice="16.28999089631971 0.0 0.0 0.0 16.28999089631971 0.0 0.0 0.0 34.69518985606464" Properties=species:S:1:pos:R:3:initial_magmoms:R:1 pbc="T T T"
Si      -1.35115776       1.35653346       1.36192574       0.00000000
Si      -1.35588186      -1.35718506      -1.35831744       0.00000000
Si       1.35498604      -1.35216774       1.36463197       0.00000000
Si       1.35876583       1.35961227      -1.35748476       0.00000000
Si       0.00174303      -2.71370223      -2.71528177       0.00000000
Si      -2.71559187      -2.71357191      -0.00284501       0.00000000
Si      -2.71389771       0.00164529      -2.71548994       0.00000000
Si       2.71563652       2.71476108       0.00242866       0.00000000
Si      -2.71529865       2.71593396       0.00156128       0.00000000
Si       2.71783242      -2.71407690       0.00166537       0.00000000
