10
Lattice="16.28999089631971 0.0 0.0 0.0 16.28999089631971 0.0 0.0 0.0 34.69518985606464" Properties=species:S:1:pos:R:3:initial_magmoms:R:1 pbc="T T T"
Si       1.34762283      -1.34498385      -1.35297438       0.00000000
Si       1.34718300       1.34096022       1.36827497       0.00000000
Si      -1.36835511       1.36534635      -1.34822114       0.00000000
Si      -1.35969535      -1.34180730       1.39405351       0.00000000
Si      -0.39799728       2.24297010       2.64949965       0.00000000
Si      -2.22998697       0.44167077       2.75448736       0.00000000
Si       2.70247842      -2.70741429       0.01356583       0.00000000
Si      -0.00830790      -2.70506853      -2.70837742       0.00000000
Si       2.70567126       0.00952965      -2.70962645       0.00000000
Si      -2.72900559      -2.70158247       0.01398217       0.00000000
