10
Lattice="16.28999089631971 0.0 0.0 0.0 16.28999089631971 0.0 0.0 0.0 34.69518985606464" Properties=species:S:1:pos:R:3:initial_magmoms:R:1 pbc="T T T"
Si      -1.39629735      -1.88950968      -0.44364764       0.00000000
Si       0.19497501       1.69117893      -1.71599035       0.00000000
Si       2.27292531      -1.11506679      -0.11716572       0.00000000
Si      -1.47377259       1.66480542       1.31914655       0.00000000
Si      -0.54426519       0.11785815       3.09654743       0.00000000
Si      -2.49750135      -0.69234129      -2.25345384       0.00000000
Si      -0.39884436      -3.38619253       1.30148669       0.00000000
Si      -0.77983488       0.51038199      -3.53641329       0.00000000
Si       3.29041777      -0.01826109       1.73743199       0.00000000
Si       1.68572178       0.84616776       3.29208962       0.00000000
