10
Lattice="16.28999089631971 0.0 0.0 0.0 16.28999089631971 0.0 0.0 0.0 34.69518985606464" Properties=species:S:1:pos:R:3:initial_magmoms:R:1 pbc="T T T"
Si       2.22998697       0.72830961       0.19554220       0.00000000
Si      -1.13484285       0.62851707       2.00899140       0.00000000
Si       0.06354729      -2.40196050       0.19696470       0.00000000
Si      -0.92950740       1.54694727      -1.77740087       0.00000000
Si       0.54426519      -0.11785815      -3.09654743       0.00000000
Si      -2.17875492      -2.49658911       0.92074146       0.00000000
Si      -3.18050847       1.28335878      -0.71281307       0.00000000
Si       2.32779213       0.45410004       2.60051002       0.00000000
Si       0.56728296       1.95641271       2.92039985       0.00000000
Si      -3.48316038      -1.04586687      -0.46550562       0.00000000
