10
Lattice="16.28999089631971 0.0 0.0 0.0 16.28999089631971 0.0 0.0 0.0 34.69518985606464" Properties=species:S:1:pos:R:3:initial_magmoms:R:1 pbc="T T T"
Si       1.98759177       1.19418732       0.59772906       0.00000000
Si      -1.08541899       1.27544184      -1.72067421       0.00000000
Si       0.80770707      -2.12735997      -0.77200310       0.00000000
Si      -1.82325825      -0.48936789       1.63577503       0.00000000
Si      -1.25323857      -3.22152669      -0.58485714       0.00000000
Si       0.67183218       2.78637192      -2.45496362       0.00000000
Si      -2.32104807       2.98159128      -0.75278195       0.00000000
Si       1.96530705       1.55821995       2.95408890       0.00000000
Si       2.11726017       3.22861284      -0.66236624       0.00000000
Si      -3.06613638      -0.00798210      -2.51318218       0.00000000
