10
Lattice="16.28999089631971 0.0 0.0 0.0 16.28999089631971 0.0 0.0 0.0 34.69518985606464" Properties=species:S:1:pos:R:3:initial_magmoms:R:1 pbc="T T T"
Si      -1.35757602       1.35682668       1.36255026       0.00000000
Si       1.35891180      -1.35811359       1.36234209       0.00000000
Si       1.35889551       1.38401469      -1.36030548       0.00000000
Si      -1.37515293      -1.36757808      -1.37403437       0.00000000
Si      -2.71137276      -2.71394658       0.00291440       0.00000000
Si      -2.71010214       2.71560816       0.00097147       0.00000000
Si      -2.71368594       0.00055386       2.71961867       0.00000000
Si       0.00076563      -2.71420722       2.71920233       0.00000000
Si       2.71850778      -2.71539639       0.00447568       0.00000000
Si       2.71751409       2.71656927       0.00690435       0.00000000
