10
Lattice="16.28999089631971 0.0 0.0 0.0 16.28999089631971 0.0 0.0 0.0 34.69518985606464" Properties=species:S:1:pos:R:3:initial_magmoms:R:1 pbc="T T T"
Si       1.27330785      -1.33594290      -1.44146104       0.00000000
Si       1.35861858       1.33255458       1.36720982       0.00000000
Si      -1.35889551      -1.38401469       1.36030548       0.00000000
Si      -1.34314308       1.39375611      -1.42145578       0.00000000
Si      -0.68740542      -2.20374378      -2.50396574       0.00000000
Si      -2.46954771      -0.39179079      -2.59942059       0.00000000
Si       2.70199344       2.67388947      -0.03122569       0.00000000
Si      -0.00024435       2.68685631       2.72219653       0.00000000
Si      -2.72683197       2.68726356      -0.00391015       0.00000000
Si       2.71242251      -0.02635722       2.72341086       0.00000000
