10
Lattice="16.28999089631971 0.0 0.0 0.0 16.28999089631971 0.0 0.0 0.0 34.69518985606464" Properties=species:S:1:pos:R:3:initial_magmoms:R:1 pbc="T T T"
Si      -2.33256510      -0.27075609       0.53045505       0.00000000
Si       0.27701145       1.79584218      -1.61218229       0.00000000
Si       1.75783761       0.58767804       1.57127664       0.00000000
Si       1.18095984      -2.24135739       0.09967934       0.00000000
Si      -2.80422576      -0.90526788      -1.72959088       0.00000000
Si       3.26458281      -0.97562439       0.56473392       0.00000000
Si       0.82108116      -0.24229746       3.48870738       0.00000000
Si       1.80457362       0.85874364      -3.09037168       0.00000000
Si       1.66763988       3.27023379      -0.46588727       0.00000000
Si      -0.94920201      -1.85248251      -3.07736097       0.00000000
