10
Lattice="16.28999089631971 0.0 0.0 0.0 16.28999089631971 0.0 0.0 0.0 34.69518985606464" Properties=species:S:1:pos:R:3:initial_magmoms:R:1 pbc="T T T"
Si       1.14632730      -1.80822258      -1.08984591       0.00000000
Si      -1.27865097       1.33304328      -1.57228280       0.00000000
Si      -1.38746817      -0.95848731       1.77261294       0.00000000
Si       1.71206271       1.53344286       0.86640877       0.00000000
Si       1.91980908       0.53411652       3.04131265       0.00000000
Si      -0.20180052      -0.39227949       3.74680504       0.00000000
Si       2.08308375      -0.97824708      -3.00727665       0.00000000
Si       0.35665326       2.21390874      -3.10091902       0.00000000
Si      -3.50205678       0.04597038       1.54296535       0.00000000
Si       3.05926200      -2.30014800       0.27211453       0.00000000
