10
Lattice="16.28999089631971 0.0 0.0 0.0 16.28999089631971 0.0 0.0 0.0 34.69518985606464" Properties=species:S:1:pos:R:3:initial_magmoms:R:1 pbc="T T T"
Si       0.93675645       0.82997550      -1.91743074       0.00000000
Si       1.91293470      -0.49192542       1.36196044       0.00000000
Si      -1.14632730       1.80822258       1.08984591       0.00000000
Si      -1.30886892      -2.02543344      -0.35389113       0.00000000
Si      -0.82108116       0.24229746      -3.48870738       0.00000000
Si       1.30249953       3.08544003      -1.64260999       0.00000000
Si       1.85062545      -2.84407110       1.61905194       0.00000000
Si       1.49587812       0.19240119       3.55500992       0.00000000
Si      -0.37936152      -3.57238071       1.42350974       0.00000000
Si       2.44350165      -0.73332693      -2.92397345       0.00000000
