10
Lattice="16.28999089631971 0.0 0.0 0.0 16.28999089631971 0.0 0.0 0.0 34.69518985606464" Properties=species:S:1:pos:R:3:initial_magmoms:R:1 pbc="T T T"
Si      -1.29016800       0.70320672      -1.81643298       0.00000000
Si      -0.36812142      -2.32191144       0.24054189       0.00000000
Si       2.20172123       0.87159645      -0.31038334       0.00000000
Si      -0.49987494       1.20580209       2.01707538       0.00000000
Si      -2.52069831      -1.68819786       1.30086218       0.00000000
Si       1.65464962      -2.45693925       1.55295757       0.00000000
Si      -0.34583670      -2.68594407      -2.11581795       0.00000000
Si      -0.21616830      -0.65151855      -3.37591325       0.00000000
Si       1.52824635       3.24812826       0.06186156       0.00000000
Si      -2.46376476       0.18275751       2.66407164       0.00000000
