10
Lattice="16.28999089631971 0.0 0.0 0.0 16.28999089631971 0.0 0.0 0.0 34.69518985606464" Properties=species:S:1:pos:R:3:initial_magmoms:R:1 pbc="T T T"
Si      -1.35602847      -1.34485353       1.38397802       0.00000000
Si       1.36252818       1.36968831       1.38744754       0.00000000
Si      -1.54448748       1.23355278      -1.38338820       0.00000000
Si       1.17110439      -1.45806903      -1.52767170       0.00000000
Si       2.69573436       2.70569474      -0.00230029       0.00000000
Si       2.70556095      -2.72251512      -0.00824705       0.00000000
Si      -2.72326446      -2.70914103       0.01906849       0.00000000
Si      -2.71730232       2.71814030       0.02882131       0.00000000
Si       0.00332316      -2.70954828       2.74517516       0.00000000
Si      -2.71262709       0.00761646       2.74697931       0.00000000
