10
Lattice="16.28999089631971 0.0 0.0 0.0 16.28999089631971 0.0 0.0 0.0 34.69518985606464" Properties=species:S:1:pos:R:3:initial_magmoms:R:1 pbc="T T T"
Si       1.35452839       1.35645510      -1.35762354       0.00000000
Si       1.35650822      -1.35733167       1.35692963       0.00000000
Si      -1.35762489       1.35715960       1.35758884       0.00000000
Si      -1.35796698      -1.35993807      -1.35762354       0.00000000
Si       2.71029177      -0.00283446       2.71403274       0.00000000
Si       0.00089595      -2.71423980      -2.71261024       0.00000000
Si      -0.00195480       2.71230522       2.71486543       0.00000000
Si      -2.71510317      -2.71461447       0.00000000       0.00000000
Si       2.71465424      -2.71515204       0.00010409       0.00000000
Si       2.71471614       2.71511524       0.00010409       0.00000000
