10
Lattice="16.28999089631971 0.0 0.0 0.0 16.28999089631971 0.0 0.0 0.0 34.69518985606464" Properties=species:S:1:pos:R:3:initial_magmoms:R:1 pbc="T T T"
Si      -1.33876107      -1.35871632      -1.38128567       0.00000000
Si       1.37396552       1.35902921      -1.38562257       0.00000000
Si       1.33369488      -1.42607547       1.46802369       0.00000000
Si      -1.64362842       1.26174195       1.38673282       0.00000000
Si       2.73909901       2.68245216      -0.02376622       0.00000000
Si      -2.72598489       2.71686479      -0.03691570       0.00000000
Si      -2.71210581      -2.73282669       0.01602919       0.00000000
Si      -2.70347211      -0.00133578      -2.74414818       0.00000000
Si       2.72282041      -2.72890080      -0.00964527       0.00000000
Si       0.01251072       2.71311972      -2.74411349       0.00000000
