10
Lattice="16.28999089631971 0.0 0.0 0.0 16.28999089631971 0.0 0.0 0.0 34.69518985606464" Properties=species:S:1:pos:R:3:initial_magmoms:R:1 pbc="T T T"
Si       2.09217357      -0.93669129       0.36846312       0.00000000
Si       0.19893348       2.32326351       0.11192675       0.00000000
Si      -1.63530423      -0.88086546       1.52863622       0.00000000
Si       1.63623276      -0.50960007      -1.94352154       0.00000000
Si      -1.48481721       2.70578529      -1.54459602       0.00000000
Si       1.72643049      -3.19215582       0.09364237       0.00000000
Si       0.24560433      -1.98399168      -3.08981655       0.00000000
Si      -0.18982737       2.98986660       2.36107838       0.00000000
Si      -0.35665326      -2.21390874       3.10091902       0.00000000
Si      -2.46198915       0.98034849      -2.94354155       0.00000000
