10
Lattice="16.28999089631971 0.0 0.0 0.0 16.28999089631971 0.0 0.0 0.0 34.69518985606464" Properties=species:S:1:pos:R:3:initial_magmoms:R:1 pbc="T T T"
Si      -0.89112816      -1.42037397       1.68720517       0.00000000
Si       1.61955180       1.12420548       1.55801062       0.00000000
Si       0.31214898      -1.37098269      -2.10697067       0.00000000
Si      -1.69132554       1.31085630      -1.38354086       0.00000000
Si      -2.20965705      -0.87008148      -2.63746042       0.00000000
Si       2.96100072      -1.36966320      -1.72750916       0.00000000
Si      -2.01753279      -3.20592087       0.50924036       0.00000000
Si      -2.27481705      -0.12686652       3.10475080       0.00000000
Si       3.05554788       2.40088536       0.15987552       0.00000000
Si      -2.79625995       2.72877962       0.44422258       0.00000000
