10
Lattice="16.28999089631971 0.0 0.0 0.0 16.28999089631971 0.0 0.0 0.0 34.69518985606464" Properties=species:S:1:pos:R:3:initial_magmoms:R:1 pbc="T T T"
Si      -1.83462608      -0.80993880       1.18734088       0.00000000
Si      -0.10548964      -0.57836016      -2.32600152       0.00000000
Si       1.80303584      -1.57822407       0.18491926       0.00000000
Si       0.94125901       1.84896387       1.27052611       0.00000000
Si      -0.26365106      -2.01973194       2.68952201       0.00000000
Si       2.03554301      -1.68044382      -2.14322716       0.00000000
Si      -0.24205765       1.68080220      -3.09116967       0.00000000
Si       2.45171993       0.72112572       2.72992111       0.00000000
Si       1.00865074      -3.51729933       1.21571115       0.00000000
Si       3.68874995      -0.59373792       1.28128510       0.00000000
