10
Lattice="16.28999089631971 0.0 0.0 0.0 16.28999089631971 0.0 0.0 0.0 34.69518985606464" Properties=species:S:1:pos:R:3:initial_magmoms:R:1 pbc="T T T"
Si       0.97655292       1.58793291       1.47331961       0.00000000
Si      -1.82609597       0.75036627      -1.35578469       0.00000000
Si       1.69261245      -1.72815723      -0.15869589       0.00000000
Si      -1.73457875      -1.13132421       1.31736464       0.00000000
Si       2.20475376       0.95184099      -1.47926494       0.00000000
Si       2.04289632       2.91261942      -0.11907396       0.00000000
Si      -0.22411782      -2.25916236       2.77675964       0.00000000
Si      -0.84944205       2.07800127      -3.00921958       0.00000000
Si       2.52553644       0.43776117       2.77060818       0.00000000
Si       1.01291220      -3.57402600       1.32812363       0.00000000
