10
Lattice="16.28999089631971 0.0 0.0 0.0 16.28999089631971 0.0 0.0 0.0 34.69518985606464" Properties=species:S:1:pos:R:3:initial_magmoms:R:1 pbc="T T T"
Si       1.29623731       0.23964219      -1.92235746       0.00000000
Si       0.13656801      -2.25916236       0.76516814       0.00000000
Si      -2.02277104       0.13502781      -1.31241568       0.00000000
Si       1.09179944       2.04985215       1.68854644       0.00000000
Si      -1.65464962       2.45693925      -1.55295757       0.00000000
Si       0.24205765      -1.68080220       3.09116967       0.00000000
Si       3.18076714      -1.04834295      -1.26071982       0.00000000
Si       0.14534930      -1.13868729      -3.48128260       0.00000000
Si       0.54707161       3.32853570      -1.86334091       0.00000000
Si       2.06845336       3.37748715       0.03511155       0.00000000
