10
Lattice="16.28999089631971 0.0 0.0 0.0 16.28999089631971 0.0 0.0 0.0 34.69518985606464" Properties=species:S:1:pos:R:3:initial_magmoms:R:1 pbc="T T T"
Si       1.54898352      -1.15017174       1.29728857       0.00000000
Si       1.06634340       1.32468651      -1.59239357       0.00000000
Si      -1.18943064       1.56677220       1.28489891       0.00000000
Si      -0.97655292      -1.58793291      -1.47331961       0.00000000
Si       1.22820084      -0.63609192      -2.95258455       0.00000000
Si       0.17904339      -2.49802263       2.65382962       0.00000000
Si      -2.53396814       0.21901905       2.65094991       0.00000000
Si       0.71605953      -3.31609014      -1.63201550       0.00000000
Si       2.72758131      -2.60561808      -0.18525160       0.00000000
Si       2.62539414       2.71518462      -0.11292944       0.00000000
