10
Lattice="16.28999089631971 0.0 0.0 0.0 16.28999089631971 0.0 0.0 0.0 34.69518985606464" Properties=species:S:1:pos:R:3:initial_magmoms:R:1 pbc="T T T"
Si      -1.35687069      -1.35514881      -1.35991342       0.00000000
Si       1.35814128       1.35953082      -1.36026037       0.00000000
Si       1.36835511      -1.36534635       1.34822114       0.00000000
Si      -1.36437123       1.36886499       1.35450097       0.00000000
Si      -2.69520886      -0.00451233       2.72305350       0.00000000
Si       2.71597794      -2.71033020      -0.00475324       0.00000000
Si      -2.71441477       2.71409319      -0.00527367       0.00000000
Si      -2.71563652      -2.71476108      -0.00242866       0.00000000
Si       0.00164040      -2.71324611      -2.71753696       0.00000000
Si      -2.71371430       0.00242721      -2.71781452       0.00000000
