10
Lattice="16.28999089631971 0.0 0.0 0.0 16.28999089631971 0.0 0.0 0.0 34.69518985606464" Properties=species:S:1:pos:R:3:initial_magmoms:R:1 pbc="T T T"
Si       1.36513349       1.32342295       1.36185635       0.00000000
Si       1.35079177      -1.36104917      -1.35932360       0.00000000
Si      -1.36145480       1.35409051      -1.35849092       0.00000000
Si      -1.37396552      -1.35902921       1.38562257       0.00000000
Si      -0.13017515       2.52829326       2.68183559       0.00000000
Si       2.71049852      -2.71093631       0.00045104       0.00000000
Si       2.71233929      -0.00057316      -2.71552464       0.00000000
Si       2.71593938       2.71395039       0.00308787       0.00000000
Si      -0.00285096       2.71458570      -2.71566342       0.00000000
Si      -2.71272659      -2.71774553       0.00433690       0.00000000
