10
Lattice="16.28999089631971 0.0 0.0 0.0 16.28999089631971 0.0 0.0 0.0 34.69518985606464" Properties=species:S:1:pos:R:3:initial_magmoms:R:1 pbc="T T T"
Si       1.35073422      -1.36074768      -1.36150940       0.00000000
Si      -1.35956177       1.35708732      -1.35960116       0.00000000
Si      -1.35080590      -1.39052743       1.35876848       0.00000000
Si       1.35024552       1.37453391       1.38746142       0.00000000
Si       2.71099809      -2.71001610      -0.00360830       0.00000000
Si       2.70907587       2.71316466       0.00294909       0.00000000
Si      -2.71593938      -2.71395039      -0.00308787       0.00000000
Si       2.71150308       0.00053757      -2.71854312       0.00000000
Si      -0.00360009      -2.71452355      -2.71861251       0.00000000
Si      -0.00171045       2.71551042      -2.71899416       0.00000000
