10
Lattice="16.28999089631971 0.0 0.0 0.0 16.28999089631971 0.0 0.0 0.0 34.69518985606464" Properties=species:S:1:pos:R:3:initial_magmoms:R:1 pbc="T T T"
Si       0.97665392       1.32763500      -1.65343489       0.00000000
Si       1.82609597      -0.75036627       1.35578469       0.00000000
Si      -1.01215537       2.12449293       1.09217049       0.00000000
Si      -1.09179944      -2.04985215      -1.68854644       0.00000000
Si       0.09151722      -1.88169048       2.67314934       0.00000000
Si       2.14005314       3.12276042      -0.22277794       0.00000000
Si      -0.54472783       1.27868355      -3.55188735       0.00000000
Si      -3.24632400       1.61288919      -1.22442863       0.00000000
Si       3.02668526       0.24549030      -2.34445937       0.00000000
Si      -2.53225185       1.10156238       2.67596312       0.00000000
