10
Lattice="16.28999089631971 0.0 0.0 0.0 16.28999089631971 0.0 0.0 0.0 34.69518985606464" Properties=species:S:1:pos:R:3:initial_magmoms:R:1 pbc="T T T"
Si       1.35378355       1.35449721       1.35710311       0.00000000
Si      -1.35650822       1.35733167      -1.35692963       0.00000000
Si       1.35814602      -1.35782037      -1.35682555       0.00000000
Si      -1.35724127      -1.36047564       1.35540304       0.00000000
Si      -0.00719773      -2.70570384       2.71517769       0.00000000
Si       2.71379982      -0.00434943      -2.71375518       0.00000000
Si      -2.71325345      -2.71441899       0.00083269       0.00000000
Si      -0.00197983       2.71378677      -2.71455317       0.00000000
Si      -2.71413311       2.71449127       0.00065921       0.00000000
Si      -2.71447520      -0.00260640      -2.71455317       0.00000000
