10
Lattice="16.28999089631971 0.0 0.0 0.0 16.28999089631971 0.0 0.0 0.0 34.69518985606464" Properties=species:S:1:pos:R:3:initial_magmoms:R:1 pbc="T T T"
Si       2.04193521       1.00817181       0.67201151       0.00000000
Si       0.67025205      -2.25994428      -0.34695209       0.00000000
Si      -1.43792644       1.00330110       1.63372801       0.00000000
Si      -0.87699658       0.46361340      -2.19481894       0.00000000
Si       1.44943533       3.16736148       0.12566605       0.00000000
Si      -0.31858353       3.14673020       1.65669624       0.00000000
Si      -2.18266582      -1.59663177      -2.43102392       0.00000000
Si       3.62387340       0.19000656      -0.87445805       0.00000000
Si       3.06967131      -2.09098440      -0.62933640       0.00000000
Si      -0.21986613      -2.95873641      -2.42602781       0.00000000
