10
Lattice="16.28999089631971 0.0 0.0 0.0 16.28999089631971 0.0 0.0 0.0 34.56954931742767" Properties=species:S:1:pos:R:3:initial_magmoms:R:1 pbc="T T T"
Si      -1.35575118      -1.35687990      -1.35761610       0.00000000
Si      -1.35726838       1.35742941       1.35758153       0.00000000
Si       1.35800771      -1.35736657       1.35740868       0.00000000
Si       1.35742126       1.35796698      -1.35744325       0.00000000
Si      -0.00107514       2.71417464       2.71495564       0.00000000
Si       2.71511131       0.00037304       2.71419511       0.00000000
Si      -2.71422255      -2.71527326       0.00003457       0.00000000
Si      -2.71474383       2.71497285       0.00020742       0.00000000
Si       0.00065486      -2.71467053       2.71533591       0.00000000
Si       2.71517647       2.71489140      -0.00006914       0.00000000
