10
Lattice="16.28999089631971 0.0 0.0 0.0 16.28999089631971 0.0 0.0 0.0 34.56954931742767" Properties=species:S:1:pos:R:3:initial_magmoms:R:1 pbc="T T T"
Si       1.36946772      -1.25015216      -1.39965961       0.00000000
Si      -1.34058555      -1.35730778       1.34634642       0.00000000
Si      -1.33095816       1.34612590      -1.39072338       0.00000000
Si       1.37647242       1.35765433       1.33905224       0.00000000
Si       2.18149164       0.66757573      -2.61142117       0.00000000
Si       0.37268262       2.32430456      -2.71124564       0.00000000
Si      -2.69557146      -0.00076580       2.69998702       0.00000000
Si      -2.70115893      -2.69820284      -0.01935204       0.00000000
Si      -2.68969077       2.71943480      -0.02841619       0.00000000
Si       0.01686015      -2.71359689       2.70005616       0.00000000
