10
Lattice="16.28999089631971 0.0 0.0 0.0 16.28999089631971 0.0 0.0 0.0 34.56954931742767" Properties=species:S:1:pos:R:3:initial_magmoms:R:1 pbc="T T T"
Si       1.35184194       1.35412254       1.36885121       0.00000000
Si      -1.36340784      -1.36091384       1.36722644       0.00000000
Si       1.35873261      -1.37330890      -1.36230719       0.00000000
Si      -1.41353217       1.33641531      -1.38541349       0.00000000
Si      -0.06612111      -2.60012672      -2.76492392       0.00000000
Si       2.70417258       2.70213633      -0.01802457       0.00000000
Si       2.68969077      -2.71943480       0.02841619       0.00000000
Si       2.70835911      -0.00306252       2.72798837       0.00000000
Si      -0.00576666       2.71099809       2.72767724       0.00000000
Si      -0.00588069      -2.72020061       2.72840320       0.00000000
