10
Lattice="16.28999089631971 0.0 0.0 0.0 16.28999089631971 0.0 0.0 0.0 34.56954931742767" Properties=species:S:1:pos:R:3:initial_magmoms:R:1 pbc="T T T"
Si      -1.33278264      -1.35365013      -1.36701902       0.00000000
Si       1.31473332      -1.29834558       1.44196585       0.00000000
Si       1.37875302       1.36576989      -1.36459915       0.00000000
Si      -1.42498404       1.28500407       1.48770139       0.00000000
Si       1.91014911       0.61431219       2.84925842       0.00000000
Si       0.14651226       2.42564616       2.86771857       0.00000000
Si      -2.68481517      -2.71888734       0.02032691       0.00000000
Si      -2.69411350       2.71766070       0.00867696       0.00000000
Si      -2.69393431       0.00311139      -2.72515367       0.00000000
Si       2.73339684      -2.70014569       0.01196107       0.00000000
