10
Lattice="16.28999089631971 0.0 0.0 0.0 16.28999089631971 0.0 0.0 0.0 34.56954931742767" Properties=species:S:1:pos:R:3:initial_magmoms:R:1 pbc="T T T"
Si       1.87481610       1.43640333      -0.00096795       0.00000000
Si      -0.63952911       1.37332845       1.83312052       0.00000000
Si       1.78000830      -1.68788835       0.01050915       0.00000000
Si      -1.46178315      -0.58316571      -1.95622275       0.00000000
Si       3.37849713      -0.13346397      -1.07476789       0.00000000
Si      -2.12545404       2.88222228       0.23216922       0.00000000
Si      -1.55724255      -2.88431229      -1.49029410       0.00000000
Si       1.41522633       3.42757890      -1.15711260       0.00000000
Si       2.69122203      -1.73403792       2.21106135       0.00000000
Si      -1.78468353      -0.00249237       3.50847731       0.00000000
