10
Lattice="16.28999089631971 0.0 0.0 0.0 16.28999089631971 0.0 0.0 0.0 34.56954931742767" Properties=species:S:1:pos:R:3:initial_magmoms:R:1 pbc="T T T"
Si      -1.35907470       1.35239580      -1.36204100       0.00000000
Si       1.35848826      -1.36296801      -1.36065822       0.00000000
Si       1.35764118       1.35545832       1.38008632       0.00000000
Si      -1.37875302      -1.36576989       1.36459915       0.00000000
Si       2.47883301      -0.14586066       2.85316478       0.00000000
Si      -2.71005327       2.70759348      -0.00273100       0.00000000
Si       2.71586880       2.71208952      -0.00148649       0.00000000
Si       0.00074934       2.71026504      -2.71796319       0.00000000
Si      -2.71153566      -2.71942002      -0.00241987       0.00000000
Si      -2.71394658      -0.00441459      -2.71803233       0.00000000
