10
Lattice="16.28999089631971 0.0 0.0 0.0 16.28999089631971 0.0 0.0 0.0 34.56954931742767" Properties=species:S:1:pos:R:3:initial_magmoms:R:1 pbc="T T T"
Si      -1.35764118      -1.35545832      -1.38008632       0.00000000
Si       1.35822762       1.35663120      -1.38157281       0.00000000
Si       1.12119183      -1.50131898       1.47307846       0.00000000
Si      -1.35837423       1.35912357       1.50954935       0.00000000
Si       2.29475601       0.10958283       2.74700163       0.00000000
Si      -0.82624509      -2.10691602       2.83377125       0.00000000
Si      -2.71182888       2.69785206      -0.01192650       0.00000000
Si       2.70581787       2.70646947      -0.00148649       0.00000000
Si       2.69993718      -2.72119563      -0.00705219       0.00000000
Si       0.00112401       2.71164969      -2.74109024       0.00000000
