10
Lattice="16.28999089631971 0.0 0.0 0.0 16.28999089631971 0.0 0.0 0.0 34.56954931742767" Properties=species:S:1:pos:R:3:initial_magmoms:R:1 pbc="T T T"
Si      -1.45591193       1.23929433      -1.44784267       0.00000000
Si       1.27213758      -1.48781946      -1.44030651       0.00000000
Si       0.76491259       1.70896761       1.56399642       0.00000000
Si      -1.63216973      -1.15142607       1.41866596       0.00000000
Si       2.53196871       2.51607195       0.02706797       0.00000000
Si      -0.09465674       2.59343316      -2.82723760       0.00000000
Si       2.62417011      -0.12258225      -2.82765244       0.00000000
Si      -2.79092630       2.69734707       0.00321497       0.00000000
Si       2.56419033      -2.92608215       0.04065381       0.00000000
Si      -2.74886552      -2.75432542       0.03885620       0.00000000
