10
Lattice="16.28999089631971 0.0 0.0 0.0 16.28999089631971 0.0 0.0 0.0 34.56954931742767" Properties=species:S:1:pos:R:3:initial_magmoms:R:1 pbc="T T T"
Si       1.17356418       1.61090181       1.27392317       0.00000000
Si      -1.12119183       1.50131898      -1.47307846       0.00000000
Si      -1.94743692      -0.60559704       1.36069279       0.00000000
Si       1.57874535      -1.21987665      -1.48013065       0.00000000
Si       2.12534001      -0.11536578       2.49955266       0.00000000
Si      -2.54285271      -2.51825481      -0.04659978       0.00000000
Si       0.63990378      -2.11453974       2.94200857       0.00000000
Si      -2.47883301       0.14586066      -2.85316478       0.00000000
Si      -2.47956606       2.86044255       0.03647089       0.00000000
Si       0.23809464      -2.57267970      -2.85413273       0.00000000
