10
Lattice="16.28999089631971 0.0 0.0 0.0 16.28999089631971 0.0 0.0 0.0 34.56954931742767" Properties=species:S:1:pos:R:3:initial_magmoms:R:1 pbc="T T T"
Si      -2.23158339      -0.34492446       0.70425125       0.00000000
Si       1.22777730      -1.71075951       1.09879374       0.00000000
Si       0.89492373       2.01565944       0.95889069       0.00000000
Si       0.30296142      -0.23007996      -2.38758183       0.00000000
Si      -2.75755491      -2.61576675       0.08362379       0.00000000
Si      -3.63897423       1.24196589      -0.36650657       0.00000000
Si       3.22349778       2.10222450       0.35565172       0.00000000
Si      -2.27255274      -0.36650871       3.10555720       0.00000000
Si       3.46691925      -1.64336778       0.51283955       0.00000000
Si      -1.13907825       1.30352580      -3.49733412       0.00000000
