10
Lattice="16.28999089631971 0.0 0.0 0.0 16.28999089631971 0.0 0.0 0.0 34.56954931742767" Properties=species:S:1:pos:R:3:initial_magmoms:R:1 pbc="T T T"
Si       1.09335222       2.00986020       0.62280535       0.00000000
Si       1.44203967      -1.53360576       1.10975229       0.00000000
Si      -2.27095632      -0.32118993       0.70210794       0.00000000
Si      -0.16993728       0.01453068      -2.44234002       0.00000000
Si       0.29452320       3.18585159      -1.20319384       0.00000000
Si       1.63691694      -1.41558471      -2.88631699       0.00000000
Si      -2.51703306      -2.62409094       0.01292902       0.00000000
Si      -3.48146622       1.41279912      -0.57302517       0.00000000
Si      -0.04237029       3.08314314       2.34405874       0.00000000
Si       1.02499938      -3.73288608       0.29169802       0.00000000
