10
Lattice="16.28999089631971 0.0 0.0 0.0 16.28999089631971 0.0 0.0 0.0 34.56954931742767" Properties=species:S:1:pos:R:3:initial_magmoms:R:1 pbc="T T T"
Si       0.93418263      -0.28641078       2.08769082       0.00000000
Si       1.13572251      -1.07328294      -1.72125339       0.00000000
Si      -0.32777109       2.25797319      -0.49261635       0.00000000
Si      -1.97794809      -0.83588877       1.04334415       0.00000000
Si      -2.46800016       1.72239057      -1.44414373       0.00000000
Si      -1.22429124      -0.07087779       3.14648757       0.00000000
Si       0.33689349       0.10270845      -3.54725258       0.00000000
Si      -3.67593787       0.45201492       0.12711230       0.00000000
Si       2.07637227      -2.37100950       2.11216607       0.00000000
Si       0.04237029      -3.08314314      -2.34405874       0.00000000
