10
Lattice="16.28999089631971 0.0 0.0 0.0 16.28999089631971 0.0 0.0 0.0 34.56954931742767" Properties=species:S:1:pos:R:3:initial_magmoms:R:1 pbc="T T T"
Si      -0.03862359       1.18307754       2.01187976       0.00000000
Si       2.32560927      -0.31211640      -0.24046592       0.00000000
Si      -0.54661095       1.38512241      -1.84732861       0.00000000
Si      -0.99126279      -2.20125141      -0.27548489       0.00000000
Si      -1.97284932      -0.26057484      -2.65082909       0.00000000
Si       2.07601389       2.21545629       1.69988940       0.00000000
Si      -0.83065968      -2.34517356      -2.62635384       0.00000000
Si       2.70914103      -2.08885041       1.31156943       0.00000000
Si       2.64580551      -0.31175802      -2.54069045       0.00000000
Si       1.28743128       1.56335130      -3.30370997       0.00000000
