10
Lattice="16.28999089631971 0.0 0.0 0.0 16.28999089631971 0.0 0.0 0.0 34.56954931742767" Properties=species:S:1:pos:R:3:initial_magmoms:R:1 pbc="T T T"
Si      -1.93828194      -1.14093531      -0.57070901       0.00000000
Si      -0.31055256       0.67031721       2.21532167       0.00000000
Si      -0.05522310       1.72664226      -1.58563697       0.00000000
Si       1.86430905      -1.26794844      -1.59441764       0.00000000
Si       1.45635858       2.37024112       2.26606979       0.00000000
Si       0.59254875      -1.23180093       3.36472525       0.00000000
Si      -2.78637192       0.95620671       2.21093133       0.00000000
Si      -1.14150546      -3.25581714      -1.63358497       0.00000000
Si      -3.76266420       0.18976221      -1.37130565       0.00000000
Si       1.26148131       3.67768320      -1.14698372       0.00000000
