10
Lattice="16.28999089631971 0.0 0.0 0.0 16.28999089631971 0.0 0.0 0.0 34.56954931742767" Properties=species:S:1:pos:R:3:initial_magmoms:R:1 pbc="T T T"
Si       1.93828194       1.14093531       0.57070901       0.00000000
Si      -1.20067074      -1.49341833       1.33016786       0.00000000
Si      -1.82438226       1.33069752      -0.80059664       0.00000000
Si       0.79677648      -2.11488183      -1.06287596       0.00000000
Si      -1.53393156      -2.51452440      -0.82686951       0.00000000
Si       1.88305884       2.86757757      -1.01492797       0.00000000
Si      -0.84808998       2.09714202       2.78164034       0.00000000
Si       1.62772938       1.81125252       2.78603068       0.00000000
Si      -0.69874326       3.12171786      -1.91062549       0.00000000
Si      -2.77625583       2.27408400       1.17837289       0.00000000
