10
Lattice="16.28999089631971 0.0 0.0 0.0 16.28999089631971 0.0 0.0 0.0 34.56954931742767" Properties=species:S:1:pos:R:3:initial_magmoms:R:1 pbc="T T T"
Si       0.32777109      -2.25797319       0.49261635       0.00000000
Si       1.01724534       1.43529561      -1.60316375       0.00000000
Si      -2.14022907      -0.53558262      -0.95152738       0.00000000
Si       0.43781004       1.69583787       1.65726512       0.00000000
Si       0.73303371       3.29378491      -0.12991244       0.00000000
Si      -0.91092051       1.61223759      -3.20643120       0.00000000
Si      -1.53425736       1.90498518       2.85461670       0.00000000
Si       0.66466458      -2.15526474      -3.05463622       0.00000000
Si      -1.65017700      -3.09386196       1.53596050       0.00000000
Si       1.26195372      -2.54438397       2.58030717       0.00000000
