10
Lattice="16.28999089631971 0.0 0.0 0.0 16.28999089631971 0.0 0.0 0.0 34.56954931742767" Properties=species:S:1:pos:R:3:initial_magmoms:R:1 pbc="T T T"
Si       0.26306721      -0.18310449      -2.29169971       0.00000000
Si      -0.81202392      -1.91772789       1.21176156       0.00000000
Si       2.00031426       0.81845195       1.09545224       0.00000000
Si      -1.80880902       1.65672884      -0.09982447       0.00000000
Si       0.57008484       2.05575239       2.58187801       0.00000000
Si      -2.18149164      -0.66757573       2.61142117       0.00000000
Si      -0.73995696       3.41523434       1.15309700       0.00000000
Si       0.94540644       2.11367963      -2.88574318       0.00000000
Si      -3.14385597      -1.49852103      -1.32067510       0.00000000
Si      -3.51244980       0.67855018       1.22069779       0.00000000
