10
Lattice="16.28999089631971 0.0 0.0 0.0 16.28999089631971 0.0 0.0 0.0 34.56954931742767" Properties=species:S:1:pos:R:3:initial_magmoms:R:1 pbc="T T T"
Si       1.35531171      -1.35483930       1.36010511       0.00000000
Si      -1.35775521      -1.35651717      -1.35664815       0.00000000
Si       1.35729909       1.35904212      -1.35678643       0.00000000
Si      -1.35979146       1.36089918       1.36231756       0.00000000
Si      -0.00060273      -2.71306040      -2.71422968       0.00000000
Si       2.71342530      -2.71413717       0.00010371       0.00000000
Si      -2.71539639      -2.71282746       0.00006914       0.00000000
Si      -2.71498914       0.00158013      -2.71381485       0.00000000
Si       2.71494027       0.00135207      -2.71398769       0.00000000
Si      -0.00066789       2.71653669      -2.71402226       0.00000000
