10
Lattice="16.28999089631971 0.0 0.0 0.0 16.28999089631971 0.0 0.0 0.0 34.56954931742767" Properties=species:S:1:pos:R:3:initial_magmoms:R:1 pbc="T T T"
Si      -1.52902827      -1.07282682       1.33504217       0.00000000
Si       1.00761795       1.67435136       1.26317204       0.00000000
Si      -1.38245085       1.29627675      -1.37687135       0.00000000
Si       1.35198855      -1.41453401      -1.37272300       0.00000000
Si       2.10909888       0.19046268       2.62476364       0.00000000
Si       0.56182581      -1.73277545       3.03652177       0.00000000
Si      -0.83585619       2.40078762       2.60281196       0.00000000
Si      -0.01112607       2.65970088      -2.74890296       0.00000000
Si      -2.68242543      -2.74131280       0.04210573       0.00000000
Si      -2.32129242       0.40161366       3.04526787       0.00000000
