10
Lattice="16.28999089631971 0.0 0.0 0.0 16.28999089631971 0.0 0.0 0.0 34.56954931742767" Properties=species:S:1:pos:R:3:initial_magmoms:R:1 pbc="T T T"
Si       0.79226415      -1.47444048      -1.71022570       0.00000000
Si       0.82069020      -1.82063882       1.33919052       0.00000000
Si      -2.44126827       0.31374540       0.51487916       0.00000000
Si       1.48543623       1.99917396      -0.44245591       0.00000000
Si      -2.58734070       1.50894270      -1.58131578       0.00000000
Si       2.88311823      -2.13438910      -0.00874610       0.00000000
Si      -0.63990378       2.11453974      -2.94200857       0.00000000
Si       0.78504768      -0.97059078       3.63239742       0.00000000
Si       2.32129242      -0.40161366      -3.04526787       0.00000000
Si      -0.49601421      -3.77167976       0.90053726       0.00000000
