10
Lattice="16.28999089631971 0.0 0.0 0.0 16.28999089631971 0.0 0.0 0.0 34.56954931742767" Properties=species:S:1:pos:R:3:initial_magmoms:R:1 pbc="T T T"
Si      -0.59297296       2.11618503      -0.82880541       0.00000000
Si       0.52693589      -0.99963585      -2.07866816       0.00000000
Si       1.67448820       0.67510647       1.62591052       0.00000000
Si      -1.61052781      -1.34449515       1.23420274       0.00000000
Si       1.11981532       3.57949944      -0.27206251       0.00000000
Si      -2.64429121       2.67748956       0.11857362       0.00000000
Si      -1.13187874      -3.58918289       0.74832745       0.00000000
Si       2.64035488      -1.97577175      -1.99338504       0.00000000
Si       1.60815532       2.99201688       1.95038049       0.00000000
Si       0.39192763       0.58906269      -3.90598099       0.00000000
