10
Lattice="16.28999089631971 0.0 0.0 0.0 16.28999089631971 0.0 0.0 0.0 34.56954931742767" Properties=species:S:1:pos:R:3:initial_magmoms:R:1 pbc="T T T"
Si      -0.08887824      -2.39149322       0.09399466       0.00000000
Si      -0.05629824       1.40325318       1.95940315       0.00000000
Si      -1.76388120       0.71276895      -1.48289622       0.00000000
Si       1.89464103       1.06227090      -1.07715319       0.00000000
Si      -1.29598353       3.01751073      -1.28439775       0.00000000
Si      -1.54209285       3.00944718       1.07252087       0.00000000
Si       0.92872548      -2.73829103       2.22863095       0.00000000
Si       0.94315842       3.08490246      -1.87035194       0.00000000
Si       0.66492522      -1.60938358      -3.37782712       0.00000000
Si      -1.34679204      -0.38726217      -3.55599868       0.00000000
