10
Lattice="16.28999089631971 0.0 0.0 0.0 16.28999089631971 0.0 0.0 0.0 34.56954931742767" Properties=species:S:1:pos:R:3:initial_magmoms:R:1 pbc="T T T"
Si       1.38245085      -1.29627675       1.37687135       0.00000000
Si      -1.34065071      -1.35280305      -1.37400208       0.00000000
Si       1.37132478       1.36342413      -1.37203161       0.00000000
Si      -1.57874535       1.21987665       1.48013065       0.00000000
Si       2.39006880       0.37807461       2.64004339       0.00000000
Si      -0.14657742      -2.36910357       2.71191352       0.00000000
Si      -2.70293454      -2.70017827       0.00352610       0.00000000
Si      -2.69993718       2.72119563       0.00705219       0.00000000
Si      -2.69909010       0.00276930      -2.73369235       0.00000000
Si       0.01571985      -2.71030251      -2.73428003       0.00000000
