10
Lattice="16.28999089631971 0.0 0.0 0.0 16.28999089631971 0.0 0.0 0.0 34.56954931742767" Properties=species:S:1:pos:R:3:initial_magmoms:R:1 pbc="T T T"
Si       0.95177583      -1.72626759       1.22562949       0.00000000
Si      -1.17356418      -1.61090181      -1.27392317       0.00000000
Si       1.66666248       1.16629884      -1.30247764       0.00000000
Si       1.04821263      -0.01257588       2.84441868       0.00000000
Si      -2.29475601      -0.10958283      -2.74700163       0.00000000
Si       2.79524997      -2.45270385      -0.11401044       0.00000000
Si       2.48468112       1.82531079       2.16395129       0.00000000
Si       0.41106186       2.59688664      -2.74848812       0.00000000
Si      -3.12100110      -2.21649885       0.08676962       0.00000000
Si       2.66558157       2.87948556       0.03432758       0.00000000
