10
Lattice="16.28999089631971 0.0 0.0 0.0 16.28999089631971 0.0 0.0 0.0 34.56954931742767" Properties=species:S:1:pos:R:3:initial_magmoms:R:1 pbc="T T T"
Si      -1.96551882      -0.69398658      -1.11666621       0.00000000
Si       0.03231936       2.39210505       0.11373388       0.00000000
Si       0.14325426      -0.51844554       2.33780165       0.00000000
Si       1.85370426      -0.53699985      -1.50284286       0.00000000
Si      -2.16039609      -0.81200763       2.87940308       0.00000000
Si       1.11154815       1.39590639       3.28528439       0.00000000
Si       2.00187810       3.01032684      -1.00348544       0.00000000
Si       3.46941162      -1.66936662      -0.18660653       0.00000000
Si      -3.77237304       0.73612881      -0.67268924       0.00000000
Si      -0.18231768       3.13012350       2.36200035       0.00000000
