10
Lattice="16.28999089631971 0.0 0.0 0.0 16.28999089631971 0.0 0.0 0.0 34.56954931742767" Properties=species:S:1:pos:R:3:initial_magmoms:R:1 pbc="T T T"
Si      -0.09643680      -1.71369171      -1.61878919       0.00000000
Si       1.61570736      -1.13236677       1.31623633       0.00000000
Si       1.43646849       1.83788667      -0.68046739       0.00000000
Si      -1.85370426       0.53699985       1.50284286       0.00000000
Si      -1.04821263       0.01257588      -2.84441868       0.00000000
Si       0.14817384       3.54732669       0.49935742       0.00000000
Si       2.67415011       0.60501060       2.59624374       0.00000000
Si      -1.82138490       2.92910490       1.61657674       0.00000000
Si      -3.81922308      -0.15698673       0.38617665       0.00000000
Si       3.41040924      -2.25728901       0.07498139       0.00000000
