10
Lattice="16.28999089631971 0.0 0.0 0.0 16.28999089631971 0.0 0.0 0.0 34.56954931742767" Properties=species:S:1:pos:R:3:initial_magmoms:R:1 pbc="T T T"
Si       0.18090045       1.05417477      -2.12962371       0.00000000
Si      -1.43646849      -1.83788667       0.68046739       0.00000000
Si      -1.28829465       1.70944002       1.17982481       0.00000000
Si       2.10992967       0.16658154       1.52005850       0.00000000
Si       0.91893519       2.14019649       1.87754241       0.00000000
Si       0.17923887      -2.97025344       1.99670371       0.00000000
Si      -0.81801864      -0.65901195      -3.46642893       0.00000000
Si       1.23768162      -1.23287607       3.27671113       0.00000000
Si      -2.48468112      -1.82531079      -2.16395129       0.00000000
Si      -1.53290529      -3.55157838      -0.93832180       0.00000000
