10
Lattice="16.28999089631971 0.0 0.0 0.0 16.28999089631971 0.0 0.0 0.0 34.56954931742767" Properties=species:S:1:pos:R:3:initial_magmoms:R:1 pbc="T T T"
Si      -0.96829389      -1.91435193      -0.94748274       0.00000000
Si      -1.29386583       1.73421711      -0.92328404       0.00000000
Si      -0.35140788       0.12439044       2.33735224       0.00000000
Si       2.32471332       0.22983561      -0.59041366       0.00000000
Si      -1.07922879       0.99619866      -3.17155051       0.00000000
Si      -1.11154815      -1.39590639      -3.28528439       0.00000000
Si       0.79648326       2.07124092       3.02625461       0.00000000
Si       3.51793953       0.18231768       1.46353726       0.00000000
Si      -0.09710469      -3.83942268       0.13361138       0.00000000
Si       0.69818940      -1.65729573       3.48195066       0.00000000
