10
Lattice="16.28999089631971 0.0 0.0 0.0 16.28999089631971 0.0 0.0 0.0 34.56954931742767" Properties=species:S:1:pos:R:3:initial_magmoms:R:1 pbc="T T T"
Si       0.74121129       0.43281553      -2.18528071       0.00000000
Si       1.86118137      -0.62190659       1.43398028       0.00000000
Si      -0.77747283       1.82120082       1.42651325       0.00000000
Si      -1.50889383      -1.95104908      -0.44190280       0.00000000
Si       2.52275085      -1.11802735      -1.73508122       0.00000000
Si      -2.15885506       0.48016730       2.73300238       0.00000000
Si       0.58090140      -2.08985617       2.76871620       0.00000000
Si      -3.32949355      -0.85429225       0.95688566       0.00000000
Si      -2.45231126       2.82789024      -0.08849810       0.00000000
Si      -0.28919637      -3.68459830       1.15617922       0.00000000
