10
Lattice="16.28999089631971 0.0 0.0 0.0 16.28999089631971 0.0 0.0 0.0 34.56954931742767" Properties=species:S:1:pos:R:3:initial_magmoms:R:1 pbc="T T T"
Si       1.64625111       1.04995063      -1.51331744       0.00000000
Si      -1.02493422      -1.66042341      -1.52596990       0.00000000
Si      -0.03103245      -1.25890749       2.14721962       0.00000000
Si      -0.55731348       2.00632431       1.40902105       0.00000000
Si      -2.64816756       2.66627294      -0.29245855       0.00000000
Si       0.23284926       2.32456575      -3.00022372       0.00000000
Si       2.76294690       2.65284998      -0.13350767       0.00000000
Si       1.27550700       1.82107443       3.14517392       0.00000000
Si      -2.47831173      -0.39719907      -3.00288558       0.00000000
Si       1.66943178      -3.01485546       2.03227580       0.00000000
