10
Lattice="16.28999089631971 0.0 0.0 0.0 16.28999089631971 0.0 0.0 0.0 34.56954931742767" Properties=species:S:1:pos:R:3:initial_magmoms:R:1 pbc="T T T"
Si      -1.83404223      -0.17822889       1.45638136       0.00000000
Si      -0.12606831      -0.03225420      -2.37679612       0.00000000
Si       0.54858204       2.30723415       0.34417463       0.00000000
Si       1.35837423      -1.87510932       0.76301952       0.00000000
Si       2.23612830       0.28704609      -2.66476063       0.00000000
Si       3.49269003       0.36103527      -0.65315743       0.00000000
Si       2.83630077       2.22791814       0.62121515       0.00000000
Si       1.03817799      -1.87546770       3.06324405       0.00000000
Si      -2.63529846       2.07058932       1.70707987       0.00000000
Si      -3.26028060      -1.82392614       0.65288087       0.00000000
