10
Lattice="16.28999089631971 0.0 0.0 0.0 16.28999089631971 0.0 0.0 0.0 34.56954931742767" Properties=species:S:1:pos:R:3:initial_magmoms:R:1 pbc="T T T"
Si      -2.28771873       0.07931601      -0.27704052       0.00000000
Si       0.69120099      -0.26050968       2.20612616       0.00000000
Si       0.82872117       1.91972016      -1.03138308       0.00000000
Si       0.65638926      -1.86688287      -1.27437258       0.00000000
Si       1.96703379       0.94278375      -2.80749838       0.00000000
Si      -2.83630077      -2.22791814      -0.62121515       0.00000000
Si       2.70523143      -1.25024121      -2.15682996       0.00000000
Si       3.04357473       0.04207707       2.14721962       0.00000000
Si      -2.66062941       1.80023463      -1.89738534       0.00000000
Si      -0.93294459       3.35519333      -1.57837736       0.00000000
