10
Lattice="16.28999089631971 0.0 0.0 0.0 16.28999089631971 0.0 0.0 0.0 34.56954931742767" Properties=species:S:1:pos:R:3:initial_magmoms:R:1 pbc="T T T"
Si      -1.06552890       0.95796507       1.85918597       0.00000000
Si       0.34911099      -2.24714034       0.67331149       0.00000000
Si       2.30992200       0.54033930       0.17627023       0.00000000
Si      -1.01760372       0.34679781      -2.13463629       0.00000000
Si       3.08803014      -0.93183687      -1.50294657       0.00000000
Si       1.30569237       1.10848467       3.18105714       0.00000000
Si      -0.92872548       2.73829103      -2.22863095       0.00000000
Si       2.77084755      -0.54959202       2.39190302       0.00000000
Si       2.13931683      -3.02086647      -0.66598274       0.00000000
Si      -1.76552649      -3.27951909       0.98530185       0.00000000
