10
Lattice="16.28999089631971 0.0 0.0 0.0 16.28999089631971 0.0 0.0 0.0 34.56954931742767" Properties=species:S:1:pos:R:3:initial_magmoms:R:1 pbc="T T T"
Si       1.35632169       1.35709233       1.35657901       0.00000000
Si      -1.35713619      -1.35774598       1.35782352       0.00000000
Si      -1.35770634       1.35816910      -1.35775438       0.00000000
Si       1.35835794      -1.35766453      -1.35768524       0.00000000
Si      -2.71485882       2.71471233      -0.00017285       0.00000000
Si      -2.71482624      -2.71502878      -0.00013828       0.00000000
Si      -2.71458189       0.00023729      -2.71537048       0.00000000
Si       0.00086337      -2.71458895      -2.71537048       0.00000000
Si       2.71531211       2.71503813      -0.00013828       0.00000000
Si       2.71519522      -2.71520797      -0.00027656       0.00000000
