10
Lattice="16.28999089631971 0.0 0.0 0.0 16.28999089631971 0.0 0.0 0.0 34.56954931742767" Properties=species:S:1:pos:R:3:initial_magmoms:R:1 pbc="T T T"
Si      -1.46292345      -1.34349983      -1.15206544       0.00000000
Si       1.68164928      -1.53921115       0.60009314       0.00000000
Si       1.13181291       1.02284910      -1.79834353       0.00000000
Si      -1.47274632       1.59584985       0.97448157       0.00000000
Si       3.18868998       0.13334994       1.30323817       0.00000000
Si      -0.52639506       3.42673182      -0.19113514       0.00000000
Si       3.05368172       1.72204848      -0.52407466       0.00000000
Si      -3.22458921       0.09197334      -1.69905973       0.00000000
Si       1.38740301      -0.69375689      -3.36237452       0.00000000
Si      -0.43030035       2.77858530      -2.41706967       0.00000000
