10
Lattice="16.28999089631971 0.0 0.0 0.0 16.28999089631971 0.0 0.0 0.0 34.56954931742767" Properties=species:S:1:pos:R:3:initial_magmoms:R:1 pbc="T T T"
Si       1.34524449       1.35190710       1.37554042       0.00000000
Si      -1.37383344      -1.36246302       1.37733804       0.00000000
Si      -1.30434030       1.48566429      -1.36859194       0.00000000
Si       1.39768200      -1.28469456      -1.49432492       0.00000000
Si       2.69566283       2.70873378      -0.02273295       0.00000000
Si      -2.70995553      -2.71192662       0.00566595       0.00000000
Si       2.70564038      -2.72399751      -0.01150475       0.00000000
Si       2.70146844      -0.00482184       2.73516156       0.00000000
Si      -0.01374876       2.71024875       2.73488500       0.00000000
Si      -0.01246185      -2.71871955       2.73505785       0.00000000
