10
Lattice="16.28999089631971 0.0 0.0 0.0 16.28999089631971 0.0 0.0 0.0 34.56954931742767" Properties=species:S:1:pos:R:3:initial_magmoms:R:1 pbc="T T T"
Si      -1.44254466       1.23417927       1.38138959       0.00000000
Si      -1.41942915      -1.32727662      -1.38155349       0.00000000
Si       1.30434030      -1.48566429       1.36859194       0.00000000
Si       0.64524690       1.85065803      -1.62471584       0.00000000
Si       2.51030529       2.61394227      -0.13800863       0.00000000
Si      -0.06810849       2.58440850       2.74824614       0.00000000
Si       0.18513585      -2.50872516      -2.81529178       0.00000000
Si      -2.94107805       2.41080597      -0.11696959       0.00000000
Si       2.64958479      -0.13375719       2.74413236       0.00000000
Si       2.70202230      -2.77035885      -0.12573298       0.00000000
