10
Lattice="16.28999089631971 0.0 0.0 0.0 16.28999089631971 0.0 0.0 0.0 34.56954931742767" Properties=species:S:1:pos:R:3:initial_magmoms:R:1 pbc="T T T"
Si      -0.88790274       1.37499003       1.72267074       0.00000000
Si      -1.07136072      -0.35865693      -2.09073294       0.00000000
Si       1.87931214       1.18281690      -0.90461647       0.00000000
Si       0.51473142      -2.02830048       1.21228563       0.00000000
Si      -0.02912652      -2.41204401      -2.47932946       0.00000000
Si       0.80065350       3.31716528      -0.90700177       0.00000000
Si       2.56604967      -2.58960501       0.26490660       0.00000000
Si       3.43546556       1.03773816       0.80899705       0.00000000
Si      -0.14602356       3.54398724       1.24837626       0.00000000
Si      -3.20896710       1.30787523       1.58518757       0.00000000
