10
Lattice="16.28999089631971 0.0 0.0 0.0 16.28999089631971 0.0 0.0 0.0 34.56954931742767" Properties=species:S:1:pos:R:3:initial_magmoms:R:1 pbc="T T T"
Si       1.71278829       1.46331441       0.55674290       0.00000000
Si      -2.05131825       0.56130453       0.94737903       0.00000000
Si      -0.25565526       0.34225290      -2.30485685       0.00000000
Si       0.59297296      -2.11618503       0.82880541       0.00000000
Si       1.11990885      -3.11582088      -1.24986275       0.00000000
Si       0.98490059      -1.52712234      -3.07717558       0.00000000
Si       2.26746116      -1.44107856       2.45471593       0.00000000
Si       2.20112828       0.87583185       2.77918590       0.00000000
Si      -2.56604967       2.58960501      -0.26490660       0.00000000
Si       0.86941589       3.62734317       0.54409044       0.00000000
