10
Lattice="16.28999089631971 0.0 0.0 0.0 16.28999089631971 0.0 0.0 0.0 34.56954931742767" Properties=species:S:1:pos:R:3:initial_magmoms:R:1 pbc="T T T"
Si       1.34121501       1.36212093       1.35716670       0.00000000
Si       1.35519672      -1.36075257      -1.36027796       0.00000000
Si      -1.35900954       1.35780408      -1.35986312       0.00000000
Si      -1.36969578      -1.36388025       1.37057969       0.00000000
Si       2.67153461      -0.05165559       2.67941813       0.00000000
Si      -0.07327242       2.57504175       2.82758330       0.00000000
Si       2.71620179       2.71322982       0.00031113       0.00000000
Si       2.71328588      -0.00089595      -2.71689154       0.00000000
Si      -0.00178130       2.71379997      -2.71706439       0.00000000
Si      -2.71801908       2.71331127      -0.00034570       0.00000000
