10
Lattice="16.28999089631971 0.0 0.0 0.0 16.28999089631971 0.0 0.0 0.0 34.56954931742767" Properties=species:S:1:pos:R:3:initial_magmoms:R:1 pbc="T T T"
Si       1.35423657      -1.35668007       1.35848034       0.00000000
Si       1.35580041       1.35664749      -1.35744325       0.00000000
Si      -1.35904212      -1.35811359      -1.35723583       0.00000000
Si      -1.36140417       1.35824391       1.36332008       0.00000000
Si       2.71303434      -0.00057015      -2.71505935       0.00000000
Si      -0.00146610       2.71357191      -2.71481736       0.00000000
Si       2.71371852       2.71526607      -0.00017285       0.00000000
Si      -0.00201996      -2.71575477      -2.71464452       0.00000000
Si       2.71432125      -2.71653669       0.00013828       0.00000000
Si      -2.71603170      -0.00115659      -2.71488650       0.00000000
