10
Lattice="16.28999089631971 0.0 0.0 0.0 16.28999089631971 0.0 0.0 0.0 34.56954931742767" Properties=species:S:1:pos:R:3:initial_magmoms:R:1 pbc="T T T"
Si       1.35749457       1.35692442       1.35768524       0.00000000
Si      -1.35754344       1.35596331      -1.35982855       0.00000000
Si      -1.35808101      -1.35830907       1.35765067       0.00000000
Si       1.35751086      -1.35897696      -1.36072736       0.00000000
Si       0.00705357      -2.72502378      -2.69986257       0.00000000
Si       2.71433185      -0.00061902       2.71509392       0.00000000
Si      -2.71362078      -2.71595025       0.00082967       0.00000000
Si      -0.00086337       2.71458895       2.71537048       0.00000000
Si       2.71485773      -2.71533123       0.00041483       0.00000000
Si      -0.00081450      -2.71523349       2.71502478       0.00000000
