10
Lattice="16.28999089631971 0.0 0.0 0.0 16.28999089631971 0.0 0.0 0.0 34.56954931742767" Properties=species:S:1:pos:R:3:initial_magmoms:R:1 pbc="T T T"
Si      -0.60238791       0.70794711       2.10407680       0.00000000
Si       0.94089804       1.96835328      -0.80087320       0.00000000
Si       2.03012074      -1.26646605      -0.02879645       0.00000000
Si      -2.19141225      -0.84592341      -0.61478521       0.00000000
Si       0.71055581      -2.66807394      -1.51915969       0.00000000
Si      -0.92010807      -1.31150790      -2.75229078       0.00000000
Si       1.61402690       1.55996298       2.96672581       0.00000000
Si       1.98277549       1.42833978      -2.82530171       0.00000000
Si      -2.75108778       1.94593824       1.64495835       0.00000000
Si       3.42248732      -0.17818002      -1.67976991       0.00000000
