10
Lattice="16.28999089631971 0.0 0.0 0.0 16.28999089631971 0.0 0.0 0.0 34.56954931742767" Properties=species:S:1:pos:R:3:initial_magmoms:R:1 pbc="T T T"
Si       2.27095632       0.32118993      -0.70210794       0.00000000
Si      -0.24607674      -2.30290101      -0.68917892       0.00000000
Si      -0.22893966       0.25963002       2.42871961       0.00000000
Si      -1.21050990       1.73398905      -1.27513311       0.00000000
Si       0.25063794       2.56844430       2.68529495       0.00000000
Si      -2.75585165       2.53120536       0.34604138       0.00000000
Si       2.10101904       0.33572061      -3.14444796       0.00000000
Si      -2.56268483      -2.69260668      -1.01278465       0.00000000
Si       1.17845118      -1.32726033       3.49947743       0.00000000
Si       3.71299599      -1.21241583       0.40764435       0.00000000
