10
Lattice="16.28999089631971 0.0 0.0 0.0 16.28999089631971 0.0 0.0 0.0 34.56954931742767" Properties=species:S:1:pos:R:3:initial_magmoms:R:1 pbc="T T T"
Si      -1.71278829      -1.46331441      -0.55674290       0.00000000
Si      -0.84337240       2.16402876      -0.01265246       0.00000000
Si       2.09490866      -0.20432547      -1.02771871       0.00000000
Si       0.48833999      -0.58748256       2.22244300       0.00000000
Si       2.97478043       1.76015079       0.07926802       0.00000000
Si       0.55467287      -2.90439297       1.89797303       0.00000000
Si       1.23403103       3.32053731      -0.17913950       0.00000000
Si      -1.81999278       2.22804846       2.20152841       0.00000000
Si      -1.96844355      -1.12106151      -2.86159975       0.00000000
Si      -1.50939135       0.12448818       3.39196607       0.00000000
