10
Lattice="16.28999089631971 0.0 0.0 0.0 16.28999089631971 0.0 0.0 0.0 34.56954931742767" Properties=species:S:1:pos:R:3:initial_magmoms:R:1 pbc="T T T"
Si       1.28369110       1.34017830       1.50139927       0.00000000
Si       0.92766663      -1.90617435      -1.26438197       0.00000000
Si      -1.43380575      -1.32471909       1.52190248       0.00000000
Si      -0.19350144       1.32957351      -2.11932197       0.00000000
Si      -2.42477532       0.59587191      -2.73358864       0.00000000
Si       2.54949740       2.78674659       0.12348250       0.00000000
Si      -2.64563514      -2.72495862       0.03201142       0.00000000
Si       1.80422990       0.61760277      -3.28884505       0.00000000
Si       2.60250506      -2.91286377       0.25062937       0.00000000
Si       2.57552882      -0.03642444       3.02038612       0.00000000
