10
Lattice="16.28999089631971 0.0 0.0 0.0 16.28999089631971 0.0 0.0 0.0 34.56954931742767" Properties=species:S:1:pos:R:3:initial_magmoms:R:1 pbc="T T T"
Si      -1.69798978       1.28790369      -0.91623185       0.00000000
Si       0.75365685       0.76501098       2.10314342       0.00000000
Si      -0.47957760      -2.30881428      -0.25657534       0.00000000
Si       1.97794809       0.83588877      -1.04334415       0.00000000
Si       2.91213072       0.54947799       1.04434667       0.00000000
Si      -0.49005207       2.55827934      -2.48748788       0.00000000
Si      -0.25063794      -2.56844430      -2.68529495       0.00000000
Si      -2.67855560      -2.60587872       0.63193171       0.00000000
Si      -3.00648959      -0.03723894      -2.33925357       0.00000000
Si       1.65017700       3.09386196      -1.53596050       0.00000000
