10
Lattice="16.28999089631971 0.0 0.0 0.0 16.28999089631971 0.0 0.0 0.0 34.56954931742767" Properties=species:S:1:pos:R:3:initial_magmoms:R:1 pbc="T T T"
Si      -1.26580630      -1.44656829       1.37791677       0.00000000
Si       1.00348029      -1.32146109      -1.76218376       0.00000000
Si       1.46536695       1.31354415       1.46569236       0.00000000
Si       2.48940522      -2.83035492      -0.16123247       0.00000000
Si      -2.54949740      -2.78674659      -0.12348250       0.00000000
Si      -2.74299884      -1.45717308      -2.24280447       0.00000000
Si       0.03155373       2.59731018       2.88299628       0.00000000
Si       2.27923164       3.15203355       0.24179931       0.00000000
Si      -2.68532231      -0.11803734       2.87001195       0.00000000
Si       2.29837239       0.14626791      -3.19249966       0.00000000
