10
Lattice="16.28999089631971 0.0 0.0 0.0 16.28999089631971 0.0 0.0 0.0 34.56954931742767" Properties=species:S:1:pos:R:3:initial_magmoms:R:1 pbc="T T T"
Si      -1.77237969      -0.27986220       1.49195344       0.00000000
Si       1.67433507       1.14520329       1.19424032       0.00000000
Si       0.37962216      -2.27993211      -0.59601393       0.00000000
Si      -0.25811505       1.95390405      -1.38050115       0.00000000
Si       0.26345817       2.91955654       1.88020427       0.00000000
Si       3.16307817       1.39905036      -0.60061169       0.00000000
Si       1.71395235       1.74475674      -2.57785273       0.00000000
Si      -3.58901999      -0.44167077      -0.13388794       0.00000000
Si      -1.59700481       1.72180413       2.78488988       0.00000000
Si      -0.90787428      -1.83940164       3.04606297       0.00000000
