10
Lattice="16.28999089631971 0.0 0.0 0.0 16.28999089631971 0.0 0.0 0.0 34.56954931742767" Properties=species:S:1:pos:R:3:initial_magmoms:R:1 pbc="T T T"
Si      -0.94170276       1.92066335      -1.26839204       0.00000000
Si       1.17063850       1.33445955       1.77611672       0.00000000
Si      -1.42276275      -1.24040205       1.66671095       0.00000000
Si       1.82059972      -1.09675683      -1.39878846       0.00000000
Si      -2.03735187      -1.62627957      -2.24321931       0.00000000
Si       3.32949355       0.85429225      -0.95688566       0.00000000
Si       2.55202072       2.67549308       0.46962759       0.00000000
Si       0.87718229       3.68218250      -1.04538376       0.00000000
Si      -2.69611947       2.86339823       0.25100964       0.00000000
Si      -2.40822630      -3.15597573       0.52206963       0.00000000
