10
Lattice="16.28999089631971 0.0 0.0 0.0 16.28999089631971 0.0 0.0 0.0 34.31420841018396" Properties=species:S:1:pos:R:3:initial_magmoms:R:1 pbc="T T T"
Si      -2.00073000      -1.23908256      -0.00765207       0.00000000
Si       0.31160196       1.77474241      -1.63390626       0.00000000
Si      -0.36788556       1.26790350       2.17277689       0.00000000
Si       1.60501982      -2.03774868      -0.19487050       0.00000000
Si      -1.47488880      -2.60071479      -1.85893897       0.00000000
Si       1.99944959       3.09119759      -0.20392945       0.00000000
Si      -1.78495266       2.72781656      -1.75397174       0.00000000
Si      -2.58855465      -1.77979653       2.26460176       0.00000000
Si       2.71330997      -1.52865360      -2.32032807       0.00000000
Si      -1.35755193      -0.33461289       3.62817166       0.00000000
