10
Lattice="16.28999089631971 0.0 0.0 0.0 16.28999089631971 0.0 0.0 0.0 34.31420841018396" Properties=species:S:1:pos:R:3:initial_magmoms:R:1 pbc="T T T"
Si      -1.35916592       1.30484399      -1.39954009       0.00000000
Si       1.86676884       0.85625485       1.14070787       0.00000000
Si      -1.24733670      -1.37231067       1.47190879       0.00000000
Si       1.33569855      -1.40987541      -1.40430976       0.00000000
Si       1.10527650       1.35350222       3.29021971       0.00000000
Si       0.60158970      -2.57627199       2.64792600       0.00000000
Si       3.44657304      -1.05292893       1.01878942       0.00000000
Si      -2.89522889       2.42914721       0.00864719       0.00000000
Si      -2.66951446      -2.68857525       0.01441198       0.00000000
Si       0.00529425       2.65958555      -2.75560405       0.00000000
