10
Lattice="16.28999089631971 0.0 0.0 0.0 16.28999089631971 0.0 0.0 0.0 34.31420841018396" Properties=species:S:1:pos:R:3:initial_magmoms:R:1 pbc="T T T"
Si      -1.30627881       1.34465333      -1.47317842       0.00000000
Si      -1.95105330      -1.02574760       0.93578330       0.00000000
Si       1.38725640      -1.38943814      -1.45331048       0.00000000
Si       1.55108493       1.32251033       1.47616376       0.00000000
Si      -2.52076347       2.75463102      -0.00065197       0.00000000
Si      -3.53085750       0.88343618       1.05770175       0.00000000
Si       2.78863623       2.66275542      -0.03108869       0.00000000
Si      -2.68040547      -0.02811542      -2.83826702       0.00000000
Si       0.02928942       2.68476321      -2.84911032       0.00000000
Si       2.56934025      -2.96126024      -0.00844130       0.00000000
