10
Lattice="16.28999089631971 0.0 0.0 0.0 16.28999089631971 0.0 0.0 0.0 34.31420841018396" Properties=species:S:1:pos:R:3:initial_magmoms:R:1 pbc="T T T"
Si       0.50321439       1.79665668      -1.34649029       0.00000000
Si       1.85477940      -0.58886721       1.28232268       0.00000000
Si       0.33207165      -1.79434350      -1.46614400       0.00000000
Si      -2.27975292       0.16206921       0.81379622       0.00000000
Si       0.65321271      -2.42497827       2.22603257       0.00000000
Si      -1.43109279       0.43904808       3.05050052       0.00000000
Si      -0.25158276      -3.42655263       0.16738480       0.00000000
Si      -1.50482133       1.82226456      -2.54556666       0.00000000
Si       0.32852043       2.48598432       2.49502180       0.00000000
Si       2.59755453      -1.31155677      -2.04447599       0.00000000
