10
Lattice="16.28999089631971 0.0 0.0 0.0 16.28999089631971 0.0 0.0 0.0 34.31420841018396" Properties=species:S:1:pos:R:3:initial_magmoms:R:1 pbc="T T T"
Si      -1.85477940       0.58886721      -1.28232268       0.00000000
Si       1.70510688      -1.09353141      -1.20041462       0.00000000
Si       0.66178125       1.97035695       1.14074218       0.00000000
Si      -1.20156669      -1.83611106       0.94370989       0.00000000
Si      -1.52270775      -1.20547629      -2.74846669       0.00000000
Si       0.74277513      -0.72268956      -3.32679868       0.00000000
Si       3.47232753       0.25642089      -0.55794934       0.00000000
Si      -1.52625897       3.07485153       1.21269912       0.00000000
Si       2.75607252       2.44447740      -0.27667562       0.00000000
Si      -2.10636216      -2.83768542      -1.11493788       0.00000000
