10
Lattice="16.28999089631971 0.0 0.0 0.0 16.28999089631971 0.0 0.0 0.0 34.31420841018396" Properties=species:S:1:pos:R:3:initial_magmoms:R:1 pbc="T T T"
Si       2.13581448       0.09586665      -0.82395323       0.00000000
Si      -0.00231318      -0.97526601       2.10099153       0.00000000
Si      -0.71364372       2.20297815       0.32632830       0.00000000
Si      -0.74607711      -1.37409408      -1.80616368       0.00000000
Si       1.60213779      -2.07544374      -1.69176005       0.00000000
Si      -2.29521932      -1.44705699       1.97365143       0.00000000
Si      -1.96620463       1.87550028      -2.15290895       0.00000000
Si      -3.29801543      -0.00127062      -1.53775780       0.00000000
Si      -0.92252876       0.33440112      -3.58631718       0.00000000
Si      -2.70461960       2.03662467       1.61829329       0.00000000
