10
Lattice="16.28999089631971 0.0 0.0 0.0 16.28999089631971 0.0 0.0 0.0 34.31420841018396" Properties=species:S:1:pos:R:3:initial_magmoms:R:1 pbc="T T T"
Si      -1.51651755       1.81980477      -0.22081205       0.00000000
Si       0.59404743      -0.84709629       2.15266875       0.00000000
Si       2.02126320       0.14592582      -1.33132340       0.00000000
Si      -1.67106078      -1.60129071      -0.77275641       0.00000000
Si       0.89608032      -1.28967930      -3.05352017       0.00000000
Si      -0.27124479      -3.06071181      -1.95179327       0.00000000
Si      -1.15033464       3.06322047       1.62893070       0.00000000
Si      -3.19937229      -0.14457375      -1.88007653       0.00000000
Si       1.48097277       0.93755466       3.37940239       0.00000000
Si      -1.22523606       3.18187683      -2.16955135       0.00000000
