10
Lattice="16.28999089631971 0.0 0.0 0.0 16.28999089631971 0.0 0.0 0.0 34.31420841018396" Properties=species:S:1:pos:R:3:initial_magmoms:R:1 pbc="T T T"
Si       1.39981599      -1.45942110      -1.17903686       0.00000000
Si      -1.52831151       1.45671696      -1.10732012       0.00000000
Si      -1.78787637      -0.95729814       1.33375971       0.00000000
Si       1.67106078       1.60129071       0.77275641       0.00000000
Si       2.56714110       0.31161141      -2.28076377       0.00000000
Si       0.15454323       3.42109548       0.55194435       0.00000000
Si      -0.38457432      -2.46262446      -2.42759434       0.00000000
Si       2.26510821       0.75419442       2.92542516       0.00000000
Si      -0.96141951      -3.15527526       2.06362333       0.00000000
Si      -3.16773711       0.12018762      -2.29174432       0.00000000
