10
Lattice="16.28999089631971 0.0 0.0 0.0 16.28999089631971 0.0 0.0 0.0 34.31420841018396" Properties=species:S:1:pos:R:3:initial_magmoms:R:1 pbc="T T T"
Si      -0.04957047      -1.91145231       1.33348520       0.00000000
Si       0.93323781       1.70240274       1.32861258       0.00000000
Si      -2.06856936       1.10076417      -0.26916080       0.00000000
Si       0.62379297      -0.96687666      -2.06187331       0.00000000
Si       0.01793529       0.79923627       3.35565694       0.00000000
Si      -1.47347937      -1.65933198      -2.86022813       0.00000000
Si      -2.78851568       0.18854046      -2.30818083       0.00000000
Si       1.95846525      -1.93706019       2.53256157       0.00000000
Si      -1.15751853      -1.31673699       3.30964156       0.00000000
Si       1.60607997       0.71070012      -3.36825027       0.00000000
