10
Lattice="16.28999089631971 0.0 0.0 0.0 16.28999089631971 0.0 0.0 0.0 34.31420841018396" Properties=species:S:1:pos:R:3:initial_magmoms:R:1 pbc="T T T"
Si      -1.35759231      -1.35656604       1.35664730       0.00000000
Si       1.35801585       1.35661491       1.35678456       0.00000000
Si      -1.35754344       1.35738054      -1.35767673       0.00000000
Si       1.35769005      -1.35773892      -1.35753947       0.00000000
Si      -2.71311579       0.00026064       2.71404952       0.00000000
Si       0.00087966       2.71403351      -2.71442697       0.00000000
Si      -2.71376739      -0.00013032      -2.71473580       0.00000000
Si      -2.71487511       2.71435841      -0.00003431       0.00000000
Si      -0.00140094      -2.71494027      -2.71490737       0.00000000
Si      -2.71448415      -2.71564074      -0.00010294       0.00000000
