10
Lattice="16.28999089631971 0.0 0.0 0.0 16.28999089631971 0.0 0.0 0.0 34.31420841018396" Properties=species:S:1:pos:R:3:initial_magmoms:R:1 pbc="T T T"
Si      -1.35552348       1.35682668       1.35740221       0.00000000
Si       1.35759231       1.35656604      -1.35664730       0.00000000
Si      -1.35689184      -1.35907470      -1.35675024       0.00000000
Si       1.35832536      -1.35829278       1.36127972       0.00000000
Si       0.00004887       2.71394658      -2.71432403       0.00000000
Si       2.71319724      -2.71542897      -0.00078923       0.00000000
Si      -0.02482596       2.71645524       2.71216223       0.00000000
Si       2.71560816       2.71318095       0.00013726       0.00000000
Si      -2.71714919       2.71169856      -0.00041177       0.00000000
Si      -2.71422514      -0.00135207      -2.71463286       0.00000000
