10
Lattice="16.28999089631971 0.0 0.0 0.0 16.28999089631971 0.0 0.0 0.0 34.31420841018396" Properties=species:S:1:pos:R:3:initial_magmoms:R:1 pbc="T T T"
Si      -0.83857662      -1.85026707      -1.17831626       0.00000000
Si       1.95105330       1.02574760      -0.93578330       0.00000000
Si      -0.29128149      -1.36207206       1.94873930       0.00000000
Si      -1.57980420       1.90918378       0.12191845       0.00000000
Si      -2.11087449      -0.35694648      -2.42309918       0.00000000
Si       0.64477449       2.37040092      -2.40896172       0.00000000
Si      -2.84498334      -1.52334306       1.62913658       0.00000000
Si      -3.44657304       1.05292893      -1.01878942       0.00000000
Si       0.07490142      -0.11865636       3.79848205       0.00000000
Si      -1.97413623      -3.32645058       0.28947482       0.00000000
