10
Lattice="16.28999089631971 0.0 0.0 0.0 16.28999089631971 0.0 0.0 0.0 34.31420841018396" Properties=species:S:1:pos:R:3:initial_magmoms:R:1 pbc="T T T"
Si       2.13488595      -0.93706596      -0.20808148       0.00000000
Si      -0.30558411       0.93411488       2.13458516       0.00000000
Si      -0.28131201       1.58802155      -1.73513323       0.00000000
Si      -1.56489885      -1.79854632      -0.24026822       0.00000000
Si      -0.78499881      -2.34175266      -2.37742694       0.00000000
Si       1.76870304      -2.18048166      -2.05782423       0.00000000
Si       1.79336610       1.93090976       2.38006914       0.00000000
Si      -1.01846709      -3.18933765       1.57114554       0.00000000
Si       2.75967261      -1.74063537       1.84559073       0.00000000
Si       0.66577230      -2.36874519       2.95448931       0.00000000
