10
Lattice="16.28999089631971 0.0 0.0 0.0 16.28999089631971 0.0 0.0 0.0 34.31420841018396" Properties=species:S:1:pos:R:3:initial_magmoms:R:1 pbc="T T T"
Si       0.73976148      -0.87265530       1.99118600       0.00000000
Si       1.93968288      -0.49995639      -1.19605672       0.00000000
Si      -1.79931195      -1.01375928      -1.08614825       0.00000000
Si      -0.24736365       2.35967166       0.27732759       0.00000000
Si      -0.65591685       1.56374226      -3.01477941       0.00000000
Si      -2.74981716       0.93563244      -1.90588083       0.00000000
Si       1.35060390       0.24164586      -3.31797992       0.00000000
Si       3.53095524       0.72355293      -0.01249038       0.00000000
Si       0.58881834      -3.25868418       1.68362758       0.00000000
Si       3.04189686      -0.19526823       2.14004112       0.00000000
