10
Lattice="16.28999089631971 0.0 0.0 0.0 16.28999089631971 0.0 0.0 0.0 34.31420841018396" Properties=species:S:1:pos:R:3:initial_magmoms:R:1 pbc="T T T"
Si      -1.35679410       1.35666278      -1.35750516       0.00000000
Si      -1.35674523      -1.35882877       1.35685319       0.00000000
Si       1.35725022       1.35797738       1.35733359       0.00000000
Si       1.35760860      -1.35775363      -1.35781399       0.00000000
Si      -0.00596214       2.71190281       2.70708373       0.00000000
Si      -2.71388142      -0.00141017      -2.71435834       0.00000000
Si      -2.71451673       2.71424857       0.00027451       0.00000000
Si      -0.00052128       2.71470469      -2.71446129       0.00000000
Si       2.71394658       2.71532371      -0.00006863       0.00000000
Si       2.71529865      -0.00177403      -2.71483874       0.00000000
