10
Lattice="16.28999089631971 0.0 0.0 0.0 16.28999089631971 0.0 0.0 0.0 34.31420841018396" Properties=species:S:1:pos:R:3:initial_magmoms:R:1 pbc="T T T"
Si      -1.36339155      -1.34005028      -1.37195145       0.00000000
Si       1.35215145       1.37563023      -1.37418187       0.00000000
Si      -1.32703227       1.34954994       1.43237880       0.00000000
Si       1.22447043      -1.53183245       1.43845242       0.00000000
Si       2.70928764      -2.68814552      -0.01424040       0.00000000
Si      -2.71956663       2.70129414       0.00356868       0.00000000
Si       2.71207323       2.71333245      -0.01502963       0.00000000
Si      -2.72841210      -2.70264362       0.01015701       0.00000000
Si      -0.00724905      -2.69821274      -2.73501551       0.00000000
Si       2.70842427       0.01656530      -2.73498120       0.00000000
