10
Lattice="16.28999089631971 0.0 0.0 0.0 16.28999089631971 0.0 0.0 0.0 34.31420841018396" Properties=species:S:1:pos:R:3:initial_magmoms:R:1 pbc="T T T"
Si      -1.36321236       1.35392543       1.34975014       0.00000000
Si       1.35669636       1.35734633      -1.35740221       0.00000000
Si      -1.35725022      -1.35797738      -1.35733359       0.00000000
Si       1.35977517      -1.35768258       1.36344152       0.00000000
Si       0.00360009       2.68366184       2.73896165       0.00000000
Si      -2.69878059       0.01381555       2.72568204       0.00000000
Si       2.72129337       2.70557189      -0.00669127       0.00000000
Si      -2.71560816       2.71290239      -0.00096080       0.00000000
Si      -2.71404432      -0.00131460      -2.71483874       0.00000000
Si      -0.00003258       2.71402640      -2.71542209       0.00000000
