10
Lattice="16.28999089631971 0.0 0.0 0.0 16.28999089631971 0.0 0.0 0.0 34.31420841018396" Properties=species:S:1:pos:R:3:initial_magmoms:R:1 pbc="T T T"
Si      -1.23755130      -1.34024509       1.50725245       0.00000000
Si       1.32703227      -1.34954994      -1.43237880       0.00000000
Si      -1.39253436       1.35174420      -1.42881012       0.00000000
Si       0.87519654       1.77797205       1.62419533       0.00000000
Si       2.89496106       0.65231676       1.60810196       0.00000000
Si       2.63614554       2.65409712      -0.05548611       0.00000000
Si      -2.67348222       2.71810053       0.20221374       0.00000000
Si       2.55150270      -2.88138239       0.00607362       0.00000000
Si      -2.78863623      -2.66275542       0.03108869       0.00000000
Si       2.67918372       0.02608029      -2.80656067       0.00000000
