10
Lattice="16.28999089631971 0.0 0.0 0.0 16.28999089631971 0.0 0.0 0.0 34.31420841018396" Properties=species:S:1:pos:R:3:initial_magmoms:R:1 pbc="T T T"
Si      -0.12048084       1.67816322       1.60621468       0.00000000
Si      -1.84464702      -0.56070994      -1.30541616       0.00000000
Si       2.01808665       0.29611962      -1.12931554       0.00000000
Si       0.12668733      -1.84222095       1.43707985       0.00000000
Si       0.53217801      -2.16076166      -2.12432520       0.00000000
Si      -3.53999619      -0.19482840       0.20653734       0.00000000
Si       2.90905191       2.21496759       0.03784859       0.00000000
Si       2.15720325       1.91461257       2.25255747       0.00000000
Si      -1.61513721      -2.94615143      -1.56383661       0.00000000
Si       3.44326617      -1.46498413      -0.27389616       0.00000000
