10
Lattice="16.28999089631971 0.0 0.0 0.0 16.28999089631971 0.0 0.0 0.0 34.31420841018396" Properties=species:S:1:pos:R:3:initial_magmoms:R:1 pbc="T T T"
Si       1.69935651      -0.94400780       1.30376030       0.00000000
Si      -2.05485318      -1.29469892      -0.11121241       0.00000000
Si      -0.95231340       1.85677167       1.29258811       0.00000000
Si       0.40461102      -0.58391130      -2.36692679       0.00000000
Si      -1.65134988       2.50382676      -0.78013396       0.00000000
Si      -2.92965876       0.58939012      -1.37627504       0.00000000
Si       0.19323198      -2.07248126       2.67740333       0.00000000
Si      -1.07994555      -3.22622051       1.07880500       0.00000000
Si       2.62503576      -2.50840166      -0.23017984       0.00000000
Si       0.15744285       2.93647287      -2.19779196       0.00000000
