10
Lattice="16.28999089631971 0.0 0.0 0.0 16.28999089631971 0.0 0.0 0.0 34.31420841018396" Properties=species:S:1:pos:R:3:initial_magmoms:R:1 pbc="T T T"
Si       0.12048084      -1.67816322      -1.60621468       0.00000000
Si      -1.80879273      -0.43264611       1.41765800       0.00000000
Si       2.27768409       0.23644935       0.64634279       0.00000000
Si      -0.33806637       2.10101904      -1.07983443       0.00000000
Si       3.02953275       0.53680437      -1.56836609       0.00000000
Si       2.08552725       2.37376251       1.55865516       0.00000000
Si       0.24716817      -3.52038417      -0.16913483       0.00000000
Si      -0.15744285      -2.93647287       2.19779196       0.00000000
Si      -3.24473994       1.35843939       1.06429008       0.00000000
Si       2.13856749      -1.38204360      -2.73553022       0.00000000
