10
Lattice="16.28999089631971 0.0 0.0 0.0 16.28999089631971 0.0 0.0 0.0 34.31420841018396" Properties=species:S:1:pos:R:3:initial_magmoms:R:1 pbc="T T T"
Si      -1.31167080       1.38790800       1.38590018       0.00000000
Si       1.40261787      -1.36648665       1.37226028       0.00000000
Si      -1.91288583      -0.79070031      -1.27803203       0.00000000
Si       1.34912151       0.01440036      -2.29799778       0.00000000
Si      -0.62907093      -0.84325185      -3.24270278       0.00000000
Si       2.64101625       2.56108122       0.00647509       0.00000000
Si      -2.65968459      -2.68413588      -0.05020858       0.00000000
Si      -2.53868247       2.83279842      -0.12969062       0.00000000
Si      -2.67586056       0.00777033       2.75183634       0.00000000
Si       0.04442283      -2.71138905       2.75622857       0.00000000
