10
Lattice="16.28999089631971 0.0 0.0 0.0 16.28999089631971 0.0 0.0 0.0 34.31420841018396" Properties=species:S:1:pos:R:3:initial_magmoms:R:1 pbc="T T T"
Si      -1.35573525       1.35531171       1.36532880       0.00000000
Si       1.36021500      -1.35902583       1.36340720       0.00000000
Si      -1.37138994      -1.36482507      -1.37389020       0.00000000
Si       1.36418976       1.38013767      -1.36593616       0.00000000
Si      -2.71085148       2.71103067       0.00315691       0.00000000
Si       2.67586056      -0.00777033      -2.75183634       0.00000000
Si      -2.71379997      -2.71603170       0.00497556       0.00000000
Si       2.71805166       2.71195920       0.00727462       0.00000000
Si      -2.71288773      -0.00174303       2.72180453       0.00000000
Si       0.00215028       2.71327869       2.72242219       0.00000000
