10
Lattice="16.28999089631971 0.0 0.0 0.0 16.28999089631971 0.0 0.0 0.0 34.31420841018396" Properties=species:S:1:pos:R:3:initial_magmoms:R:1 pbc="T T T"
Si       1.35602847      -1.35563751      -1.34264710       0.00000000
Si      -1.36669842       1.36894644      -1.34405398       0.00000000
Si      -1.03835718       1.07877267       1.85125258       0.00000000
Si      -1.36166481      -1.37754756       1.40300582       0.00000000
Si       1.37516922       1.37556018       1.39319195       0.00000000
Si      -0.00856854      -2.70386307      -2.69335804       0.00000000
Si       2.70699075       0.01166364      -2.69287764       0.00000000
Si       2.71005327      -2.70321147       0.02525527       0.00000000
Si      -2.72288979       0.00868257      -2.69394138       0.00000000
Si      -0.00531054       2.72572425      -2.69407864       0.00000000
