10
Lattice="16.28999089631971 0.0 0.0 0.0 16.28999089631971 0.0 0.0 0.0 34.31420841018396" Properties=species:S:1:pos:R:3:initial_magmoms:R:1 pbc="T T T"
Si       1.33240797       1.35365013      -1.37661818       0.00000000
Si       1.29184587      -1.45075482       1.38313789       0.00000000
Si      -1.37516922      -1.37556018      -1.39319195       0.00000000
Si      -1.26552123       1.37655387       1.61441578       0.00000000
Si      -2.41352640      -0.29678751       0.45806062       0.00000000
Si      -2.03062995      -0.57091563       2.89883163       0.00000000
Si       2.70286938       2.70588303       0.00394614       0.00000000
Si       2.68923465      -0.00943191      -2.72962818       0.00000000
Si      -2.72831436       2.70687672       0.00631382       0.00000000
Si       2.69480583      -2.74106943      -0.00878444       0.00000000
