10
Lattice="16.28999089631971 0.0 0.0 0.0 16.28999089631971 0.0 0.0 0.0 34.31420841018396" Properties=species:S:1:pos:R:3:initial_magmoms:R:1 pbc="T T T"
Si       1.45645632      -1.77699465       0.27423931       0.00000000
Si      -1.49521023      -0.08710263      -1.78866343       0.00000000
Si      -1.07624772       0.43109856       2.05082413       0.00000000
Si       1.61197695       1.54230462      -0.75909934       0.00000000
Si       0.27750015      -3.34140480      -1.02177475       0.00000000
Si      -1.51039251       2.69879688       1.75740317       0.00000000
Si       0.71456085       0.02767671       3.57818471       0.00000000
Si       1.34622189      -2.12763690       2.64679363       0.00000000
Si       3.04416117       1.69947054       1.16942888       0.00000000
Si      -0.12746925      -0.52792632      -3.64856319       0.00000000
