10
Lattice="16.28999089631971 0.0 0.0 0.0 16.28999089631971 0.0 0.0 0.0 34.31420841018396" Properties=species:S:1:pos:R:3:initial_magmoms:R:1 pbc="T T T"
Si       1.35785295       1.35594702      -1.35791693       0.00000000
Si      -1.35780408       1.35734796       1.35692182       0.00000000
Si       1.35920502      -1.35697329       1.35599533       0.00000000
Si      -1.35788553      -1.35796698      -1.35709339       0.00000000
Si      -0.00218286      -2.71375110       2.70601999       0.00000000
Si       2.71298547       0.00120546       2.71277989       0.00000000
Si       2.71494027      -2.71433754      -0.00130394       0.00000000
Si       0.00022806       2.71412577       2.71535346       0.00000000
Si       2.71456560       2.71513575      -0.00065197       0.00000000
Si      -2.71715571       0.00066789       2.71271126       0.00000000
