10
Lattice="16.28999089631971 0.0 0.0 0.0 16.28999089631971 0.0 0.0 0.0 34.31420841018396" Properties=species:S:1:pos:R:3:initial_magmoms:R:1 pbc="T T T"
Si      -0.95216679       1.91984166      -1.08992281       0.00000000
Si       1.18089468       1.26996840       1.69546053       0.00000000
Si      -1.35413883      -1.31507541       1.66570667       0.00000000
Si       1.18122048      -0.67751739      -2.20242438       0.00000000
Si      -0.81715527      -1.72586034      -3.16205607       0.00000000
Si       0.93753837       3.48022818      -1.03834853       0.00000000
Si       2.73772998       2.55616164       0.40847657       0.00000000
Si      -2.41364043      -3.02884857       0.46530093       0.00000000
Si      -2.76744294       2.76240933       0.27063631       0.00000000
Si      -2.91144654      -2.19998079      -1.74463827       0.00000000
