10
Lattice="16.28999089631971 0.0 0.0 0.0 16.28999089631971 0.0 0.0 0.0 34.31420841018396" Properties=species:S:1:pos:R:3:initial_magmoms:R:1 pbc="T T T"
Si       1.35681039      -1.35711990      -1.35753947       0.00000000
Si       1.35741312       1.35798327       1.35760810       0.00000000
Si      -1.35752715      -1.35812988       1.35846596       0.00000000
Si      -1.35814617       1.35809730      -1.35791693       0.00000000
Si       2.71251306      -0.00003258      -2.71463286       0.00000000
Si      -0.00045612       2.71407690      -2.71494169       0.00000000
Si       2.71469592      -2.71510317      -0.00085786       0.00000000
Si       0.00488700      -2.71844262       2.71147595       0.00000000
Si      -2.71510317      -0.00004887      -2.71490737       0.00000000
Si       2.71477737       2.71528555      -0.00044608       0.00000000
