10
Lattice="16.28999089631971 0.0 0.0 0.0 16.28999089631971 0.0 0.0 0.0 34.31420841018396" Properties=species:S:1:pos:R:3:initial_magmoms:R:1 pbc="T T T"
Si      -1.35687205       1.35645201      -1.35699044       0.00000000
Si       1.35668098       1.35801585       1.35692182       0.00000000
Si      -1.35639964      -1.35756625       1.35777967       0.00000000
Si       1.35737005      -1.35773403      -1.35774536       0.00000000
Si       2.71319164      -0.00030951      -2.71449560       0.00000000
Si      -2.71422001      -0.00053757      -2.71425540       0.00000000
Si      -0.00134467       2.71477737      -2.71446129       0.00000000
Si      -2.71470871      -2.71504201      -0.00030883       0.00000000
Si       0.00061694      -2.71685339       2.71298578       0.00000000
Si       2.71537450       2.71490769      -0.00034314       0.00000000
