10
Lattice="16.28999089631971 0.0 0.0 0.0 16.28999089631971 0.0 0.0 0.0 34.31420841018396" Properties=species:S:1:pos:R:3:initial_magmoms:R:1 pbc="T T T"
Si       1.27957950      -1.93530087       0.17325254       0.00000000
Si      -2.14731522      -0.78538977       0.56048859       0.00000000
Si      -1.18115532       0.18104706      -2.04433874       0.00000000
Si      -2.37682503       1.60005171       0.81890904       0.00000000
Si       1.48590864       2.45688128       0.99500966       0.00000000
Si      -0.53217801       2.16076166       2.12432520       0.00000000
Si      -2.26686753       2.22245189      -1.47290390       0.00000000
Si       2.91108816       0.69577752       1.85042904       0.00000000
Si       1.46018673       3.01227254      -1.32003402       0.00000000
Si      -0.40549068       0.31854071       3.56140505       0.00000000
