10
Lattice="16.28999089631971 0.0 0.0 0.0 16.28999089631971 0.0 0.0 0.0 34.31420841018396" Properties=species:S:1:pos:R:3:initial_magmoms:R:1 pbc="T T T"
Si      -0.64308033      -0.00122175      -2.26034680       0.00000000
Si       0.95216679      -1.91984166       1.08992281       0.00000000
Si      -1.81527615       0.84256767       1.36055912       0.00000000
Si       1.88970516       1.56038652       0.05157428       0.00000000
Si       2.13338727      -2.59735905      -1.11250157       0.00000000
Si       2.13306147      -0.64987326       2.78538335       0.00000000
Si       1.37769417       0.41827833      -3.30823468       0.00000000
Si      -0.54209862       1.99630692       2.95915746       0.00000000
Si       0.96402591       3.12478038       1.58551442       0.00000000
Si       1.78909812       2.49435738      -2.24415048       0.00000000
