10
Lattice="16.28999089631971 0.0 0.0 0.0 16.28999089631971 0.0 0.0 0.0 34.31420841018396" Properties=species:S:1:pos:R:3:initial_magmoms:R:1 pbc="T T T"
Si       1.35488817      -1.35550719       1.36052481       0.00000000
Si      -1.35312885      -1.34462547      -1.37460051       0.00000000
Si      -1.36006839       1.36013355       1.35901498       0.00000000
Si       1.35819504       1.34490240      -1.38396829       0.00000000
Si       2.71270854      -2.71065926       0.00003431       0.00000000
Si       2.71223613       0.00148239       2.71778977       0.00000000
Si      -0.00247608      -2.71270691       2.71734368       0.00000000
Si      -2.72080467      -2.71245279      -0.00147551       0.00000000
Si       2.71538010       2.71829601       0.00140688       0.00000000
Si      -0.00319284       2.71810053       2.71672603       0.00000000
