10
Lattice="16.28999089631971 0.0 0.0 0.0 16.28999089631971 0.0 0.0 0.0 34.31420841018396" Properties=species:S:1:pos:R:3:initial_magmoms:R:1 pbc="T T T"
Si       1.35679410       1.35742941       1.35709339       0.00000000
Si      -1.35754181       1.35698958      -1.35688750       0.00000000
Si       1.35725022      -1.35762489      -1.35781399       0.00000000
Si      -1.35869351      -1.35689184       1.35726496       0.00000000
Si       0.00514764       2.71132389       2.71483874       0.00000000
Si      -2.71310669       0.00195480       2.71418677       0.00000000
Si       0.00017919       2.71477737      -2.71360343       0.00000000
Si      -0.00218286      -2.71521720      -2.71415246       0.00000000
Si       2.71489140       2.71467963       0.00017157       0.00000000
Si       2.71485882      -2.71513575       0.00065197       0.00000000
