10
Lattice="16.28999089631971 0.0 0.0 0.0 16.28999089631971 0.0 0.0 0.0 34.31420841018396" Properties=species:S:1:pos:R:3:initial_magmoms:R:1 pbc="T T T"
Si      -1.32432813       1.77798834      -0.65299975       0.00000000
Si      -1.07294085      -0.61813220       1.96129831       0.00000000
Si       2.14277031       1.02381021       0.20056666       0.00000000
Si       0.07780104      -1.41795686      -1.91435644       0.00000000
Si      -0.14537196       3.34239849       0.64301431       0.00000000
Si       2.73483036       0.56545848      -1.99499488       0.00000000
Si       0.71742789      -1.77183791       2.93235663       0.00000000
Si      -2.80782585      -1.86762311       0.95304336       0.00000000
Si       2.40671718      -1.73960000      -1.90200332       0.00000000
Si      -1.09942839      -0.23034223      -3.61589605       0.00000000
