10
Lattice="16.28999089631971 0.0 0.0 0.0 16.28999089631971 0.0 0.0 0.0 34.31420841018396" Properties=species:S:1:pos:R:3:initial_magmoms:R:1 pbc="T T T"
Si      -0.98966637      -1.60251639       1.45539477       0.00000000
Si       1.71237615       1.12035778       1.34150241       0.00000000
Si      -1.85103270       1.70481692       0.18803116       0.00000000
Si       0.36788556      -1.26790350      -2.17277689       0.00000000
Si      -1.63284444      -2.50698606      -2.18042896       0.00000000
Si      -2.37651552      -0.25470047       2.87634693       0.00000000
Si      -2.22066909      -3.04770003       0.09182487       0.00000000
Si       0.35738307       2.45104553       2.87645674       0.00000000
Si       2.36733515       1.82329409      -2.37670635       0.00000000
Si       0.67948752       0.50683892      -3.80668315       0.00000000
