10
Lattice="16.28999089631971 0.0 0.0 0.0 16.28999089631971 0.0 0.0 0.0 34.31420841018396" Properties=species:S:1:pos:R:3:initial_magmoms:R:1 pbc="T T T"
Si      -1.35280847       1.27677762       1.41384912       0.00000000
Si      -1.35651947      -1.33758819      -1.35791693       0.00000000
Si       1.36173486       1.37178090      -1.35726496       0.00000000
Si       1.22113587      -1.51928685       1.38588302       0.00000000
Si       2.20446543       0.16578333       2.74506958       0.00000000
Si      -2.58775025      -0.23480406       2.72777521       0.00000000
Si      -0.00210630      -2.69643483      -2.71483874       0.00000000
Si      -2.71153796      -2.71524978       0.00597068       0.00000000
Si       2.71338132       0.01788642      -2.71501032       0.00000000
Si      -2.71710914       0.01638774      -2.71487306       0.00000000
