10
Lattice="16.28999089631971 0.0 0.0 0.0 16.28999089631971 0.0 0.0 0.0 34.31420841018396" Properties=species:S:1:pos:R:3:initial_magmoms:R:1 pbc="T T T"
Si      -0.03730410      -0.18712323       2.35381876       0.00000000
Si      -1.79080857       0.40342185      -1.52736058       0.00000000
Si       1.60959861       1.77490953      -0.14384524       0.00000000
Si       0.63166104      -2.15531361      -0.93139108       0.00000000
Si      -0.71456085      -0.02767671      -3.57818471       0.00000000
Si      -0.09629019      -2.51719596       2.74266758       0.00000000
Si       2.32960032       1.67179383      -2.40875583       0.00000000
Si       0.74189547      -1.80467136      -3.30394540       0.00000000
Si       2.01158694       0.72953136       3.18902705       0.00000000
Si      -2.22495336       2.67112017      -1.82078154       0.00000000
