10
Lattice="16.28999089631971 0.0 0.0 0.0 16.28999089631971 0.0 0.0 0.0 34.31420841018396" Properties=species:S:1:pos:R:3:initial_magmoms:R:1 pbc="T T T"
Si       1.50604308      -1.18972386      -1.36622097       0.00000000
Si       0.98332956       1.68507018       1.35918655       0.00000000
Si      -1.28744105      -1.43197245       1.41124124       0.00000000
Si      -1.22113587       1.51928685      -1.38588302       0.00000000
Si      -2.33111692       0.10912671       2.84464947       0.00000000
Si       2.24528328       0.29266614       2.91344949       0.00000000
Si       0.13724325      -2.53573398      -2.74002539       0.00000000
Si      -2.57765534       0.18169866      -2.74379995       0.00000000
Si      -2.57394434       2.79606447       0.02796610       0.00000000
Si       3.00881187      -2.46786984       0.09793281       0.00000000
