10
Lattice="16.28999089631971 0.0 0.0 0.0 16.28999089631971 0.0 0.0 0.0 34.31420841018396" Properties=species:S:1:pos:R:3:initial_magmoms:R:1 pbc="T T T"
Si      -1.64444292      -0.24120603       1.62501888       0.00000000
Si       1.65621963       1.10021031       1.23575828       0.00000000
Si      -0.93599082       1.57400496      -1.46995288       0.00000000
Si       0.70411149      -2.18473335      -0.68027956       0.00000000
Si      -1.10657970       0.06685416      -3.32570062       0.00000000
Si       1.79728940      -0.33111054       3.09009914       0.00000000
Si      -0.40378023      -1.05467976       3.42589817       0.00000000
Si      -2.79995778       2.48748300      -0.08427574       0.00000000
Si       0.63269678       3.02436882       2.18423784       0.00000000
Si       0.70283761       3.31485210      -1.69508853       0.00000000
