10
Lattice="16.28999089631971 0.0 0.0 0.0 16.28999089631971 0.0 0.0 0.0 34.31420841018396" Properties=species:S:1:pos:R:3:initial_magmoms:R:1 pbc="T T T"
Si       0.49177881       2.25631161      -0.29338665       0.00000000
Si      -0.72000171       0.10311570       2.26491059       0.00000000
Si      -1.43218422      -0.15716592      -1.92852822       0.00000000
Si       1.56336663      -1.84370220      -0.03383383       0.00000000
Si      -3.04416117      -1.69947054      -1.16942888       0.00000000
Si      -2.32960032      -1.67179383       2.40875583       0.00000000
Si      -0.74888388       3.06978534      -2.09426594       0.00000000
Si       0.68092200      -3.40718382      -1.58696440       0.00000000
Si      -0.03130938      -0.57767598      -3.85105145       0.00000000
Si      -0.18741645       3.60931014       1.50474751       0.00000000
