10
Lattice="16.28999089631971 0.0 0.0 0.0 16.28999089631971 0.0 0.0 0.0 34.31420841018396" Properties=species:S:1:pos:R:3:initial_magmoms:R:1 pbc="T T T"
Si       0.87467593       0.38040408       2.08581713       0.00000000
Si      -1.87778088      -1.18936548      -0.59133708       0.00000000
Si       0.73094763       1.57271805      -1.55350803       0.00000000
Si      -1.03612545      -0.37100475       3.26170257       0.00000000
Si       2.88291365      -1.24157493       1.92935176       0.00000000
Si      -1.25433000      -2.36556864      -2.66813708       0.00000000
Si      -3.68046486       0.53827047      -0.74259420       0.00000000
Si      -1.01028951       2.95103124      -2.25523398       0.00000000
Si       1.10913953       0.44861031      -3.66112220       0.00000000
Si      -2.32802019      -2.91768561       0.95722969       0.00000000
