10
Lattice="16.28999089631971 0.0 0.0 0.0 16.28999089631971 0.0 0.0 0.0 34.31420841018396" Properties=species:S:1:pos:R:3:initial_magmoms:R:1 pbc="T T T"
Si       1.35570267       1.35708732      -1.35709339       0.00000000
Si      -1.35681039       1.35711990       1.35753947       0.00000000
Si       1.35788553      -1.35798327       1.35668162       0.00000000
Si      -1.35671265      -1.35918873      -1.35726496       0.00000000
Si      -0.00158013      -2.71393029       2.71343186       0.00000000
Si       2.71326240      -0.00320913       2.71507894       0.00000000
Si       0.00329058       2.71415835      -2.71487306       0.00000000
Si      -2.71456560      -2.71513575       0.00065197       0.00000000
Si      -2.71495656       2.71521720      -0.00037746       0.00000000
Si       2.71497285       2.71521720       0.00024020       0.00000000
