10
Lattice="16.28999089631971 0.0 0.0 0.0 16.28999089631971 0.0 0.0 0.0 34.31420841018396" Properties=species:S:1:pos:R:3:initial_magmoms:R:1 pbc="T T T"
Si       1.35736425       1.35730228      -1.35805419       0.00000000
Si      -1.35741312      -1.35798327      -1.35760810       0.00000000
Si       1.35695700      -1.35687555       1.35963264       0.00000000
Si      -1.35614250       1.35816246       1.36306406       0.00000000
Si       2.71437012       0.00011403      -2.71490737       0.00000000
Si       0.00048870       2.71460700      -2.71518189       0.00000000
Si      -0.00060273      -2.71510317      -2.71514757       0.00000000
Si       2.71567332       2.71477804       0.00003431       0.00000000
Si       2.71265967      -2.71831230      -0.00006863       0.00000000
Si      -2.71494027      -2.71611315       0.00085786       0.00000000
