10
Lattice="16.28999089631971 0.0 0.0 0.0 16.28999089631971 0.0 0.0 0.0 34.31420841018396" Properties=species:S:1:pos:R:3:initial_magmoms:R:1 pbc="T T T"
Si       1.23100272       1.44518364       1.36356989       0.00000000
Si      -1.55683530      -1.28619324       1.28698397       0.00000000
Si       0.58782465       0.54071397      -2.27225384       0.00000000
Si      -1.80019161       0.92406654      -1.44682509       0.00000000
Si      -2.72587086       2.48846040       0.08711504       0.00000000
Si      -2.73772998      -2.55616164      -0.40847657       0.00000000
Si       2.22066909       3.04770003      -0.09182487       0.00000000
Si       2.57189778       0.08048889       2.76152466       0.00000000
Si      -0.16231356      -2.61902475       2.76629091       0.00000000
Si       2.58855465       1.77979653      -2.26460176       0.00000000
