10
Lattice="16.28999089631971 0.0 0.0 0.0 16.28999089631971 0.0 0.0 0.0 34.31420841018396" Properties=species:S:1:pos:R:3:initial_magmoms:R:1 pbc="T T T"
Si       2.00073000       1.23908256       0.00765207       0.00000000
Si       0.52584120      -1.36163223      -1.85128689       0.00000000
Si      -0.58782465      -0.54071397       2.27225384       0.00000000
Si      -2.38801626       0.38335257       0.82542874       0.00000000
Si      -2.48862330       1.31732343      -1.47029602       0.00000000
Si       3.60574982      -0.79866612      -0.18721843       0.00000000
Si       1.63284444       2.50698606       2.18042896       0.00000000
Si       2.26707834      -2.73994542      -1.14956094       0.00000000
Si       0.64317807       0.90446967       3.63582373       0.00000000
Si      -1.35034326      -2.56121154      -2.52408595       0.00000000
