10
Lattice="16.28999089631971 0.0 0.0 0.0 16.28999089631971 0.0 0.0 0.0 34.31420841018396" Properties=species:S:1:pos:R:3:initial_magmoms:R:1 pbc="T T T"
Si      -1.87618446      -1.19957931      -0.67279906       0.00000000
Si       1.74123714      -1.37831319       0.70172595       0.00000000
Si       0.73588446       1.06974801      -1.95464135       0.00000000
Si      -0.52584120       1.36163223       1.85128689       0.00000000
Si       1.47488880       2.60071479       1.85893897       0.00000000
Si      -3.42586845       0.60287661      -0.68309333       0.00000000
Si       3.07990862       0.56296611       1.66406847       0.00000000
Si       2.11942904      -2.50242093      -1.40588822       0.00000000
Si       1.72136660      -0.82279161      -3.04871618       0.00000000
Si      -1.21824765       2.27349756      -2.66679883       0.00000000
