10
Lattice="16.28999089631971 0.0 0.0 0.0 16.28999089631971 0.0 0.0 0.0 34.31420841018396" Properties=species:S:1:pos:R:3:initial_magmoms:R:1 pbc="T T T"
Si      -0.67539969      -2.24249769       0.35446597       0.00000000
Si       2.21597757      -0.78263676       0.36644164       0.00000000
Si      -0.45036963       0.89495631      -2.19751745       0.00000000
Si      -1.25143038       1.16089056       1.72374091       0.00000000
Si       1.57343481      -3.01062006       0.69304445       0.00000000
Si      -1.03817799       3.30556680       0.81029617       0.00000000
Si      -1.23448878       3.02638878      -1.51891928       0.00000000
Si       3.23191971      -0.95244372      -1.75434920       0.00000000
Si       2.96155458       0.13965417       2.37735832       0.00000000
Si      -2.17198968      -0.42981165      -3.18899274       0.00000000
