10
Lattice="16.28999089631971 0.0 0.0 0.0 16.28999089631971 0.0 0.0 0.0 34.31420841018396" Properties=species:S:1:pos:R:3:initial_magmoms:R:1 pbc="T T T"
Si      -1.35677579      -1.35641943      -1.35771104       0.00000000
Si      -1.35748573       1.35881406       1.35740221       0.00000000
Si       1.35863813       1.35786924      -1.35801987       0.00000000
Si       1.36365545      -1.36032903       1.35647573       0.00000000
Si      -2.71627998       2.71277370      -0.00034314       0.00000000
Si       2.71530191      -2.71422351      -0.00126963       0.00000000
Si       0.00096600      -2.71466334      -2.71525051       0.00000000
Si      -2.71417857       0.00034209      -2.71600543       0.00000000
Si      -2.71518855      -2.71572219      -0.00113237       0.00000000
Si       2.71588835       0.00084708      -2.71549071       0.00000000
