10
Lattice="16.28999089631971 0.0 0.0 0.0 16.28999089631971 0.0 0.0 0.0 34.31420841018396" Properties=species:S:1:pos:R:3:initial_magmoms:R:1 pbc="T T T"
Si       1.51738092      -1.12602996      -1.50992896       0.00000000
Si       1.63942560       1.33652934       1.18442419       0.00000000
Si      -1.19154508       1.57328820      -1.49682092       0.00000000
Si      -0.90086958      -1.65853377       1.62251394       0.00000000
Si      -2.53890455      -2.58269805      -0.11145261       0.00000000
Si       2.78316279      -2.58281208      -0.13585003       0.00000000
Si       0.17563878      -2.48769477      -2.88256669       0.00000000
Si      -2.54550240       0.23144832      -2.88164020       0.00000000
Si       3.16773711      -0.12018762       2.29174432       0.00000000
Si      -2.50252567       3.02733360      -0.10942807       0.00000000
