10
Lattice="16.28999089631971 0.0 0.0 0.0 16.28999089631971 0.0 0.0 0.0 34.31420841018396" Properties=species:S:1:pos:R:3:initial_magmoms:R:1 pbc="T T T"
Si      -0.73094763      -1.57271805       1.55350803       0.00000000
Si      -1.74123714       1.37831319      -0.70172595       0.00000000
Si       0.37819190      -1.12410774      -2.10761417       0.00000000
Si       1.33867147       1.94127930       0.96234251       0.00000000
Si       2.65658135      -1.52142084      -1.72377522       0.00000000
Si       2.44696162       2.45037438      -1.16311506       0.00000000
Si      -2.26707834       2.73994542       1.14956094       0.00000000
Si      -1.00535268       2.44806120      -2.65636730       0.00000000
Si      -0.01987054       0.55552158      -3.75044213       0.00000000
Si       0.14372830      -1.19231397       3.63932515       0.00000000
