10
Lattice="16.28999089631971 0.0 0.0 0.0 16.28999089631971 0.0 0.0 0.0 34.31420841018396" Properties=species:S:1:pos:R:3:initial_magmoms:R:1 pbc="T T T"
Si      -1.35423168      -1.33876107       1.38863159       0.00000000
Si       1.36366848       1.37401819       1.38502860       0.00000000
Si      -1.33783580       1.37875369      -1.50381073       0.00000000
Si       1.19920464      -1.59611049      -1.43149350       0.00000000
Si       2.47762755       0.01246837      -2.70023259       0.00000000
Si      -2.69282888       2.70944144       0.03114359       0.00000000
Si      -2.69898326      -2.70881523       0.00803639       0.00000000
Si       2.72305269      -2.70317889       0.01419923       0.00000000
Si       0.00568521      -2.69975799       2.74980837       0.00000000
Si       2.71034649       2.74865147       0.00353093       0.00000000
