10
Lattice="16.28999089631971 0.0 0.0 0.0 16.28999089631971 0.0 0.0 0.0 34.31420841018396" Properties=species:S:1:pos:R:3:initial_magmoms:R:1 pbc="T T T"
Si      -0.77990004       0.54320634       2.13715872       0.00000000
Si       0.87084711      -1.80310752      -1.33966176       0.00000000
Si      -1.84892640       1.20396132      -1.17601721       0.00000000
Si       2.55370185       0.16127100       0.31960272       0.00000000
Si       0.78499881       2.34175266       2.37742694       0.00000000
Si       2.00640672      -0.32692401      -2.80745284       0.00000000
Si       2.84498334       1.52334306      -1.62913658       0.00000000
Si      -0.60158970       2.57627199      -2.64792600       0.00000000
Si       2.91988476       1.40468670       2.16934547       0.00000000
Si       1.26517914       3.43252684      -1.50721813       0.00000000
