10
Lattice="16.28999089631971 0.0 0.0 0.0 16.28999089631971 0.0 0.0 0.0 34.61538196595647" Properties=species:S:1:pos:R:3:initial_magmoms:R:1 pbc="T T T"
Si       0.76110138       1.81159461       1.30348309       0.00000000
Si      -1.89852619      -0.71478728       1.21253458       0.00000000
Si       1.79774811      -1.67076593       0.15901069       0.00000000
Si      -0.48444831      -2.05102358       2.68159837       0.00000000
Si       2.25129429       0.67424310       2.71353454       0.00000000
Si       2.26939248       2.93627250      -0.04792437       0.00000000
Si       3.55635135      -0.62213791       1.25256730       0.00000000
Si       0.90707607      -3.51938024       1.25646845       0.00000000
Si      -1.42904025      -1.52082300      -3.29266824       0.00000000
Si      -2.74303726       2.77664679       0.00671913       0.00000000
