10
Lattice="16.28999089631971 0.0 0.0 0.0 16.28999089631971 0.0 0.0 0.0 34.61538196595647" Properties=species:S:1:pos:R:3:initial_magmoms:R:1 pbc="T T T"
Si       0.78912018       1.74628800       1.42523519       0.00000000
Si       0.06167394       0.19344375      -2.43436271       0.00000000
Si      -1.80898495      -0.97407684       1.35086400       0.00000000
Si       1.63763370      -1.92801924      -0.03053078       0.00000000
Si      -2.63921783       1.07424405      -1.12115823       0.00000000
Si       2.13653124       0.51235308       2.87051473       0.00000000
Si       3.30744015      -0.86771943       1.33686207       0.00000000
Si      -0.57433653      -2.22079941       2.88182012       0.00000000
Si       0.51971616       2.42564616      -3.05460147       0.00000000
Si      -2.63676456      -2.92739445       0.12748852       0.00000000
