10
Lattice="16.28999089631971 0.0 0.0 0.0 16.28999089631971 0.0 0.0 0.0 34.61538196595647" Properties=species:S:1:pos:R:3:initial_magmoms:R:1 pbc="T T T"
Si      -0.53102142      -1.55378907       1.65375080       0.00000000
Si      -0.39270303       2.16951849       0.82689271       0.00000000
Si      -1.53249804      -0.05224203      -1.80325472       0.00000000
Si       2.30987313       0.29854683      -0.52258871       0.00000000
Si      -0.10528227       3.36303792      -1.23701598       0.00000000
Si       0.43403076       1.80388944       3.09174380       0.00000000
Si      -2.83051782      -1.22455188       1.91800477       0.00000000
Si       2.15378235       2.64106512      -1.31753140       0.00000000
Si      -1.34076474       2.07316314      -2.75510902       0.00000000
Si       0.09358605      -0.52123113       3.71765949       0.00000000
