10
Lattice="16.28999089631971 0.0 0.0 0.0 16.28999089631971 0.0 0.0 0.0 34.61538196595647" Properties=species:S:1:pos:R:3:initial_magmoms:R:1 pbc="T T T"
Si       1.90130364       1.41389055       0.21651934       0.00000000
Si       0.45797706      -0.98548799      -2.21618184       0.00000000
Si      -2.27579445       0.94609062      -0.27117705       0.00000000
Si      -0.50691222      -0.61707823       2.34920883       0.00000000
Si       1.14095160       2.66976810       1.99492019       0.00000000
Si       1.83158244       2.50128063      -1.84832397       0.00000000
Si       1.56815685      -1.12721099       3.32875545       0.00000000
Si       1.30095198       0.84649356      -3.61142482       0.00000000
Si      -1.18737810       2.99260332       2.28091264       0.00000000
Si      -2.28102354       3.25803258       0.13860007       0.00000000
