10
Lattice="16.28999089631971 0.0 0.0 0.0 16.28999089631971 0.0 0.0 0.0 34.61538196595647" Properties=species:S:1:pos:R:3:initial_magmoms:R:1 pbc="T T T"
Si       1.72108737      -1.02837304      -1.18800057       0.00000000
Si      -0.73192599      -2.16766862       0.78455807       0.00000000
Si      -1.17488367       1.04692572      -1.96072018       0.00000000
Si       0.66301929       1.46339586       2.09478563       0.00000000
Si      -1.57745844      -1.52091422       2.88935174       0.00000000
Si       2.59155981       0.77090796      -2.50899352       0.00000000
Si       3.06159147      -2.05854191       0.45630022       0.00000000
Si       0.65503719      -2.82516560      -2.37008191       0.00000000
Si       1.91932038       3.16491894       0.82350040       0.00000000
Si      -2.73753450      -2.69017037      -0.49302716       0.00000000
