10
Lattice="16.28999089631971 0.0 0.0 0.0 16.28999089631971 0.0 0.0 0.0 34.61538196595647" Properties=species:S:1:pos:R:3:initial_magmoms:R:1 pbc="T T T"
Si       1.35330804      -1.35278676      -1.35903527       0.00000000
Si       1.34557029       1.35658233       1.36893528       0.00000000
Si      -1.36159965       1.36146933      -1.35778912       0.00000000
Si      -1.38176667      -1.35325917       1.37170451       0.00000000
Si       2.70661608      -2.71016730       0.00190385       0.00000000
Si       2.70860346       2.71663443       0.00197308       0.00000000
Si      -2.71783989      -2.70765864       0.00162692       0.00000000
Si       2.71036278       0.00355122      -2.71640900       0.00000000
Si      -0.00430056      -2.71093293      -2.71620131       0.00000000
Si      -0.00389331       2.71850778      -2.71620131       0.00000000
