10
Lattice="16.28999089631971 0.0 0.0 0.0 16.28999089631971 0.0 0.0 0.0 34.61538196595647" Properties=species:S:1:pos:R:3:initial_magmoms:R:1 pbc="T T T"
Si       1.34679204      -1.24641306      -1.49559303       0.00000000
Si       1.85712516       0.96314625       1.11530823       0.00000000
Si      -1.04545962      -1.63159011       1.42982377       0.00000000
Si      -1.35268902       1.47152457      -1.47918533       0.00000000
Si      -1.02477132       2.20543794       2.51363198       0.00000000
Si      -2.71730232      -2.57588883       0.00619616       0.00000000
Si       2.90939400      -2.37483765      -0.11942313       0.00000000
Si       1.12707252       1.48717926       3.27520543       0.00000000
Si       0.00122175      -2.60299539      -2.86452830       0.00000000
Si       2.68100820       2.84980518      -0.10744621       0.00000000
