10
Lattice="16.28999089631971 0.0 0.0 0.0 16.28999089631971 0.0 0.0 0.0 34.61538196595647" Properties=species:S:1:pos:R:3:initial_magmoms:R:1 pbc="T T T"
Si      -0.73005264       0.52403301       2.15989720       0.00000000
Si      -1.85712516      -0.96314625      -1.11530823       0.00000000
Si       0.82388304       1.88665893      -1.22275444       0.00000000
Si       1.94481423      -1.48124970       0.04704233       0.00000000
Si      -2.88189648       1.24229169       1.39832375       0.00000000
Si      -0.51033312      -2.20955931      -2.61090126       0.00000000
Si       1.03329099       1.93712535       2.68331668       0.00000000
Si       2.21796495       0.53377443      -2.62498973       0.00000000
Si       1.05226884      -3.33798390      -1.23473136       0.00000000
Si      -2.90258478      -2.59473636       0.31451554       0.00000000
