10
Lattice="16.28999089631971 0.0 0.0 0.0 16.28999089631971 0.0 0.0 0.0 34.61538196595647" Properties=species:S:1:pos:R:3:initial_magmoms:R:1 pbc="T T T"
Si      -2.30894460      -0.13144401       0.27186936       0.00000000
Si       1.06456779       1.63416393       1.30067370       0.00000000
Si       0.56879793      -2.23979355       0.49112331       0.00000000
Si       0.51854328       1.07931024      -2.20908568       0.00000000
Si       3.18824622       0.64534464       1.05386589       0.00000000
Si      -2.84016150      -0.09557343      -2.10191640       0.00000000
Si      -0.33277212      -2.36868003       2.64755897       0.00000000
Si      -2.53200357      -1.96227711       1.73613545       0.00000000
Si       0.23214879       1.16489790       3.51796324       0.00000000
Si       2.28188691       2.49240258      -1.68566620       0.00000000
