10
Lattice="16.28999089631971 0.0 0.0 0.0 16.28999089631971 0.0 0.0 0.0 34.61538196595647" Properties=species:S:1:pos:R:3:initial_magmoms:R:1 pbc="T T T"
Si       0.73388079      -1.37792223       1.71837775       0.00000000
Si       1.99764270       1.08196551      -0.53172718       0.00000000
Si      -1.32585939       1.86891912       0.51736179       0.00000000
Si      -0.87514767      -1.71442476      -1.37395451       0.00000000
Si       1.28337507      -2.51747289      -1.72367391       0.00000000
Si      -1.33459083      -2.46707163       1.83728166       0.00000000
Si      -2.19258513       1.16866089       2.61031280       0.00000000
Si       2.11010886      -2.88310194       0.54117718       0.00000000
Si      -2.25204363      -0.61527330      -2.91281679       0.00000000
Si       2.20082787       3.05413065       0.74173882       0.00000000
