10
Lattice="16.28999089631971 0.0 0.0 0.0 16.28999089631971 0.0 0.0 0.0 34.61538196595647" Properties=species:S:1:pos:R:3:initial_magmoms:R:1 pbc="T T T"
Si      -1.67625729      -0.96521508      -1.36284297       0.00000000
Si      -1.40017437       0.58262814       1.81841626       0.00000000
Si       1.96100649      -1.04065407       0.96732739       0.00000000
Si       1.53927468       1.50016239      -1.13368901       0.00000000
Si       1.92331143       3.12392664       0.55481565       0.00000000
Si      -3.00791592      -1.17817425       2.05155099       0.00000000
Si       3.64896000      -0.04134402      -1.16345825       0.00000000
Si      -0.94517838      -3.04043076      -2.19877029       0.00000000
Si      -0.06304230       1.68941961       3.49542861       0.00000000
Si       2.97000909      -2.34559710      -0.91377736       0.00000000
