10
Lattice="16.28999089631971 0.0 0.0 0.0 16.28999089631971 0.0 0.0 0.0 34.61538196595647" Properties=species:S:1:pos:R:3:initial_magmoms:R:1 pbc="T T T"
Si       1.23419556      -0.59798961      -1.88754322       0.00000000
Si      -0.53066304      -1.15696467       1.96189710       0.00000000
Si       1.14969933       1.72854819       1.15276209       0.00000000
Si      -2.09707686       0.76724271      -0.88999658       0.00000000
Si      -2.02312026       0.46488402       2.82918598       0.00000000
Si       1.86142572       1.57594347      -2.61913972       0.00000000
Si       2.00513610       2.89612321      -0.66077340       0.00000000
Si      -3.44698029       0.37276407       0.99782356       0.00000000
Si      -0.37553337       2.23859462       2.95248604       0.00000000
Si      -0.19315053      -3.43184688       1.66500080       0.00000000
