10
Lattice="16.28999089631971 0.0 0.0 0.0 16.28999089631971 0.0 0.0 0.0 34.61538196595647" Properties=species:S:1:pos:R:3:initial_magmoms:R:1 pbc="T T T"
Si       0.59613255       1.60640577       1.57458537       0.00000000
Si       1.14803775      -1.83806586       0.85358118       0.00000000
Si       1.13736780       0.54341811      -2.01163943       0.00000000
Si      -2.26903410      -0.68071023      -0.45387714       0.00000000
Si      -1.59923817      -2.62529640      -1.66420465       0.00000000
Si      -0.17936919      -3.56757516       0.01623462       0.00000000
Si       2.98928016       1.23349509       1.85528166       0.00000000
Si      -3.17818063       1.27058742      -1.61622770       0.00000000
Si      -0.20939166       3.73437566       0.91640813       0.00000000
Si      -0.28649223       0.45129816      -3.84300185       0.00000000
