10
Lattice="16.28999089631971 0.0 0.0 0.0 16.28999089631971 0.0 0.0 0.0 34.61538196595647" Properties=species:S:1:pos:R:3:initial_magmoms:R:1 pbc="T T T"
Si      -0.84553245       0.64675440       2.10479367       0.00000000
Si       0.73192599       2.16766862      -0.78455807       0.00000000
Si      -2.00560851      -0.52250175      -1.27758523       0.00000000
Si       2.03968719      -1.40100516       0.20492318       0.00000000
Si       2.45301336       1.13929558      -1.97255864       0.00000000
Si       1.38696318      -0.65749698      -3.15463998       0.00000000
Si       1.69328034      -2.57624721      -1.73814315       0.00000000
Si      -1.00618443      -0.28458630      -3.43533627       0.00000000
Si       0.91307079       1.69538242       3.19835027       0.00000000
Si      -2.46365073      -2.75470416      -0.65734647       0.00000000
