10
Lattice="16.28999089631971 0.0 0.0 0.0 16.28999089631971 0.0 0.0 0.0 34.61538196595647" Properties=species:S:1:pos:R:3:initial_magmoms:R:1 pbc="T T T"
Si      -1.36384767      -1.34495127       1.38132413       0.00000000
Si       1.35133695       1.36778985       1.38101259       0.00000000
Si      -1.48102164       1.32869385      -1.37003605       0.00000000
Si       1.30958568      -1.48575388      -1.48197879       0.00000000
Si       2.70133812      -2.70940886       0.02124693       0.00000000
Si      -2.72394864      -2.69653976      -0.00375231       0.00000000
Si       2.69897607       2.73412989      -0.00082385       0.00000000
Si      -2.72541474       2.71295289       0.03534925       0.00000000
Si      -0.00684180      -2.70516472       2.74236709       0.00000000
Si       2.70910845       0.01107720       2.74181325       0.00000000
