10
Lattice="16.28999089631971 0.0 0.0 0.0 16.28999089631971 0.0 0.0 0.0 34.61538196595647" Properties=species:S:1:pos:R:3:initial_magmoms:R:1 pbc="T T T"
Si       1.35580041       1.35780734      -1.35671604       0.00000000
Si       1.35446463      -1.35687951       1.36073143       0.00000000
Si      -1.35962856      -1.35738014      -1.35675065       0.00000000
Si      -1.36259334       1.35801911       1.36104296       0.00000000
Si       2.71316466      -2.71469985      -0.00045000       0.00000000
Si       2.71274112       2.71531820      -0.00031154       0.00000000
Si       2.71407690      -0.00093667      -2.71447054       0.00000000
Si      -0.00110772      -2.71536774      -2.71436669       0.00000000
Si      -0.00247608       2.71525304      -2.71492054       0.00000000
Si      -2.71627605      -0.00031765      -2.71474746       0.00000000
