10
Lattice="16.28999089631971 0.0 0.0 0.0 16.28999089631971 0.0 0.0 0.0 34.61538196595647" Properties=species:S:1:pos:R:3:initial_magmoms:R:1 pbc="T T T"
Si       2.09474739      -0.49452042       1.00107741       0.00000000
Si      -1.22039793      -1.96107721       0.56658489       0.00000000
Si       0.98723916       0.68379067      -2.07983177       0.00000000
Si      -0.85572999       1.90355329       1.26595446       0.00000000
Si      -2.60868060      -0.54260361      -2.18052797       0.00000000
Si       2.98861227       1.67280544       0.67444648       0.00000000
Si      -1.43676171      -1.59986275       2.98305144       0.00000000
Si      -2.29397409       1.76262850      -2.28745495       0.00000000
Si       1.19136915       3.21012532       1.38485836       0.00000000
Si      -1.06197768       0.76592485       3.49158630       0.00000000
