10
Lattice="16.28999089631971 0.0 0.0 0.0 16.28999089631971 0.0 0.0 0.0 34.61538196595647" Properties=species:S:1:pos:R:3:initial_magmoms:R:1 pbc="T T T"
Si      -1.35951453      -1.34741106      -1.39136606       0.00000000
Si       1.35741312       1.36879983      -1.38728144       0.00000000
Si      -1.21872006       1.55347956       1.34397757       0.00000000
Si       1.41134931      -1.26421803       1.66593542       0.00000000
Si      -2.69604387      -2.68737759      -0.01616539       0.00000000
Si       2.71298547      -2.68517844       0.00290769       0.00000000
Si      -0.00232947      -2.70177795      -2.74905133       0.00000000
Si       2.71306692       2.74471839      -0.02734617       0.00000000
Si      -2.71041165       2.75100633      -0.03475386       0.00000000
Si       2.71500543       0.01358586      -2.74801286       0.00000000
