10
Lattice="16.28999089631971 0.0 0.0 0.0 16.28999089631971 0.0 0.0 0.0 34.61538196595647" Properties=species:S:1:pos:R:3:initial_magmoms:R:1 pbc="T T T"
Si       1.35620766       1.35819504      -1.35643912       0.00000000
Si      -1.35830907      -1.35760860      -1.35630065       0.00000000
Si       1.35609363      -1.35966114       1.35834296       0.00000000
Si      -1.36006839       1.35547461       1.36208143       0.00000000
Si       2.71327869      -2.71402803       0.00065769       0.00000000
Si       2.71393029       0.00068418      -2.71343208       0.00000000
Si      -0.00193851      -2.71409319      -2.71395131       0.00000000
Si      -2.71547784      -0.00017919      -2.71339746       0.00000000
Si      -0.00083079       2.71518462      -2.71388208       0.00000000
Si      -2.71536381      -2.71394658       0.00107308       0.00000000
