10
Lattice="16.28999089631971 0.0 0.0 0.0 16.28999089631971 0.0 0.0 0.0 34.61538196595647" Properties=species:S:1:pos:R:3:initial_magmoms:R:1 pbc="T T T"
Si      -2.19934548       0.72483984       0.22583088       0.00000000
Si      -0.52274610      -2.15700777       0.74755421       0.00000000
Si       1.05298560       1.48445883       1.54858921       0.00000000
Si       0.75137625      -0.33278841      -2.28035879       0.00000000
Si       1.69008750       1.80690309      -2.50961660       0.00000000
Si       0.89761158      -2.36382561       2.58054355       0.00000000
Si      -0.81205650      -3.31537338      -1.30216217       0.00000000
Si       0.42010281       3.60997803       0.78857346       0.00000000
Si       3.62701737      -1.21485933      -0.34947709       0.00000000
Si      -3.69159093      -1.06064190      -0.25213858       0.00000000
