10
Lattice="16.28999089631971 0.0 0.0 0.0 16.28999089631971 0.0 0.0 0.0 34.61538196595647" Properties=species:S:1:pos:R:3:initial_magmoms:R:1 pbc="T T T"
Si       1.26263790      -1.28966301      -1.43758454       0.00000000
Si       1.38111507       1.32212898       1.36198104       0.00000000
Si      -1.33402068      -1.38710979       1.36281181       0.00000000
Si      -1.45176480       1.34024346      -1.55261844       0.00000000
Si      -0.65686167      -2.24187867      -2.83747087       0.00000000
Si      -2.46944997      -0.56532816      -2.72126697       0.00000000
Si       2.43602289       0.33179472      -2.85965934       0.00000000
Si      -2.71793763       2.67939549      -0.02623155       0.00000000
Si       0.02593368       2.68130142       2.72146631       0.00000000
Si      -2.69143380      -0.03487689       2.72115477       0.00000000
