10
Lattice="16.28999089631971 0.0 0.0 0.0 16.28999089631971 0.0 0.0 0.0 34.61538196595647" Properties=species:S:1:pos:R:3:initial_magmoms:R:1 pbc="T T T"
Si      -1.44514617       1.31297400      -1.31090602       0.00000000
Si      -1.36090081      -1.34469063       1.36840566       0.00000000
Si       1.35523026       1.36865322       1.36954797       0.00000000
Si       1.22844519      -1.56836862      -1.39251183       0.00000000
Si      -2.27569345      -0.60331644      -2.68927579       0.00000000
Si      -2.71457279      -2.70669753       0.00943616       0.00000000
Si       2.71863810      -2.70572013       0.01753962       0.00000000
Si      -0.00376299      -2.70270648       2.72920632       0.00000000
Si       2.70967860       2.72282463       0.00280731       0.00000000
Si       2.71195920       0.01185912       2.73055632       0.00000000
