10
Lattice="16.28999089631971 0.0 0.0 0.0 16.28999089631971 0.0 0.0 0.0 34.61538196595647" Properties=species:S:1:pos:R:3:initial_magmoms:R:1 pbc="T T T"
Si       1.36184400       1.36446669      -1.34855373       0.00000000
Si      -1.35902583       1.35606105       1.36336220       0.00000000
Si       1.35762489      -1.35894438       1.36311989       0.00000000
Si      -1.38624642      -1.36085031      -1.38457798       0.00000000
Si       2.62720233      -0.01138671      -2.75611633       0.00000000
Si      -2.71230129      -2.71262709       0.00238846       0.00000000
Si      -2.71505430       2.71383255       0.00103846       0.00000000
Si       2.71492398       2.71425609       0.00664616       0.00000000
Si       2.71280628      -2.71811682       0.00363462       0.00000000
Si       2.71415835      -0.00053757       2.72000900       0.00000000
