10
Lattice="16.28999089631971 0.0 0.0 0.0 16.28999089631971 0.0 0.0 0.0 34.61538196595647" Properties=species:S:1:pos:R:3:initial_magmoms:R:1 pbc="T T T"
Si       1.36010097       1.35158849       1.38507644       0.00000000
Si      -1.35451350      -1.36510200       1.38473028       0.00000000
Si       1.39991373      -1.40230836      -1.37537374       0.00000000
Si      -1.39997889       1.40760328      -1.42647992       0.00000000
Si      -2.70503595       2.70398429       0.03448732       0.00000000
Si       2.72394864       2.69653976       0.00375231       0.00000000
Si      -2.70184311      -2.72357397       0.02270078       0.00000000
Si       2.72238480      -2.71446786       0.03513809       0.00000000
Si      -0.00034209       2.70747035       2.74605017       0.00000000
Si      -2.71410948      -0.00739786       2.74653479       0.00000000
