10
Lattice="16.28999089631971 0.0 0.0 0.0 16.28999089631971 0.0 0.0 0.0 34.61538196595647" Properties=species:S:1:pos:R:3:initial_magmoms:R:1 pbc="T T T"
Si       1.23554763      -1.35272160      -1.55083921       0.00000000
Si      -1.61313354      -1.23344622       1.32144295       0.00000000
Si      -1.46070801       1.37186235      -1.52484304       0.00000000
Si       1.86771366       0.79667874       1.49181995       0.00000000
Si       2.62791909       2.64691323      -0.00411923       0.00000000
Si       2.64665259      -2.62785393      -0.11194621       0.00000000
Si       2.60020980       0.00777033      -2.92631680       0.00000000
Si      -2.85954660      -2.68908804      -0.17044624       0.00000000
Si      -0.11593593      -2.70795186      -2.93185526       0.00000000
Si      -0.11565900       2.72303637      -2.92593603       0.00000000
