10
Lattice="16.28999089631971 0.0 0.0 0.0 16.28999089631971 0.0 0.0 0.0 34.61538196595647" Properties=species:S:1:pos:R:3:initial_magmoms:R:1 pbc="T T T"
Si       0.85543677       1.16757502      -1.81353549       0.00000000
Si      -1.14969933      -1.72854819      -1.15276209       0.00000000
Si      -1.52523270       0.51004643       1.79972394       0.00000000
Si       2.24371944      -0.25089858       0.93357737       0.00000000
Si      -1.68036237      -2.88551286       0.80913501       0.00000000
Si      -0.21159081      -0.55930086       3.44409397       0.00000000
Si       0.00232947      -2.67897195       2.40279347       0.00000000
Si      -3.17281959      -1.26366417       1.67642389       0.00000000
Si       0.08449623      -2.32653780      -3.04030531       0.00000000
Si       0.71172639      -0.15260472      -3.77190182       0.00000000
