10
Lattice="16.28999089631971 0.0 0.0 0.0 16.28999089631971 0.0 0.0 0.0 34.61538196595647" Properties=species:S:1:pos:R:3:initial_magmoms:R:1 pbc="T T T"
Si       0.14072931      -0.01252701      -2.32695112       0.00000000
Si       2.05862499      -0.19018575       1.11551592       0.00000000
Si      -0.89386488      -2.16732586       0.32663093       0.00000000
Si      -1.79724312       1.53731988       0.71041188       0.00000000
Si      -2.98861227      -1.67280544      -0.67444648       0.00000000
Si      -2.00137311      -0.98901477      -2.75427825       0.00000000
Si      -0.61742358      -2.34627802       2.66119744       0.00000000
Si       1.75485558      -2.10972604       2.49968197       0.00000000
Si      -1.72139688       3.37807359      -0.72467343       0.00000000
Si      -3.84434226       0.23074785       0.59150798       0.00000000
