10
Lattice="16.28999089631971 0.0 0.0 0.0 16.28999089631971 0.0 0.0 0.0 34.61538196595647" Properties=species:S:1:pos:R:3:initial_magmoms:R:1 pbc="T T T"
Si       0.27644130      -0.17895217       2.33456651       0.00000000
Si       0.89386488       2.16732586      -0.32663093       0.00000000
Si      -2.09474739       0.49452042      -1.00107741       0.00000000
Si       1.22556186      -2.05996891      -0.48994639       0.00000000
Si       2.64872046       0.05759981       2.17305105       0.00000000
Si      -1.10750823       1.17831109      -3.08090918       0.00000000
Si       1.03459419       2.15479885      -2.65358205       0.00000000
Si       2.95248987       1.97714011       0.78888500       0.00000000
Si      -3.31514532      -1.46655679      -0.43449252       0.00000000
Si      -0.12251709      -3.65363590       0.61816184       0.00000000
