10
Lattice="16.28999089631971 0.0 0.0 0.0 16.28999089631971 0.0 0.0 0.0 34.61538196595647" Properties=species:S:1:pos:R:3:initial_magmoms:R:1 pbc="T T T"
Si       1.57444479      -1.07961228      -1.53740843       0.00000000
Si      -1.85505633      -1.62490374       0.05850003       0.00000000
Si       1.80501345      -0.64582587       1.60258477       0.00000000
Si      -0.73782297       2.04317162       1.52740458       0.00000000
Si      -1.59822819       1.08889202      -1.90163169       0.00000000
Si      -1.54543230       2.99874302      -0.49174639       0.00000000
Si       0.39112290      -1.78031034       2.98758056       0.00000000
Si       2.46680840      -2.47045248       0.28076552       0.00000000
Si      -0.87785181      -3.19029129       1.54377767       0.00000000
Si      -2.95252992      -0.89776701      -1.95476633       0.00000000
