10
Lattice="16.28999089631971 0.0 0.0 0.0 16.28999089631971 0.0 0.0 0.0 34.61538196595647" Properties=species:S:1:pos:R:3:initial_magmoms:R:1 pbc="T T T"
Si       0.05279589       1.90985100       1.40988530       0.00000000
Si       0.25114293       0.88257102      -2.20617799       0.00000000
Si      -1.35430173      -1.98665902      -0.05313464       0.00000000
Si       1.59822819      -1.08889202       1.90163169       0.00000000
Si      -0.25682814      -2.71379575       1.96013171       0.00000000
Si       0.86040522       0.95427960       3.42903627       0.00000000
Si       0.97826337       3.15652470      -1.69539313       0.00000000
Si      -0.81775800       3.66154728      -0.15462700       0.00000000
Si      -3.26689434      -1.57631392       1.19828135       0.00000000
Si       1.48276467      -0.73264438      -3.46880937       0.00000000
