10
Lattice="16.28999089631971 0.0 0.0 0.0 16.28999089631971 0.0 0.0 0.0 34.61538196595647" Properties=species:S:1:pos:R:3:initial_magmoms:R:1 pbc="T T T"
Si      -1.35237951       1.35940050      -1.36059296       0.00000000
Si       1.36046817      -1.35734796      -1.36204681       0.00000000
Si      -1.35439947      -1.33936380       1.39032759       0.00000000
Si       1.36149769       1.35956340       1.38336990       0.00000000
Si      -2.70997182       2.71461447       0.00013846       0.00000000
Si      -2.71329498      -2.71208952       0.00155769       0.00000000
Si      -2.71104696       0.00045612      -2.71803593       0.00000000
Si       2.72048606      -2.71075374      -0.00055385       0.00000000
Si       0.00359858      -2.71404432      -2.71890131       0.00000000
Si       2.71656017       2.71650411       0.00159231       0.00000000
