10
Lattice="16.28999089631971 0.0 0.0 0.0 16.28999089631971 0.0 0.0 0.0 34.61538196595647" Properties=species:S:1:pos:R:3:initial_magmoms:R:1 pbc="T T T"
Si      -0.80058834       1.73343519      -1.26249292       0.00000000
Si       0.30967290       0.68142699       2.16997028       0.00000000
Si       2.13156279      -0.67981428      -0.61836953       0.00000000
Si      -1.14989481      -1.89198576      -0.75167344       0.00000000
Si      -0.52211079      -1.45785726      -2.99727837       0.00000000
Si      -3.09614256       1.24146090      -1.09921207       0.00000000
Si       2.17179909      -2.70917361       0.56769258       0.00000000
Si      -0.32985621       0.89640612      -3.41553626       0.00000000
Si       3.51580295       1.02574872       0.27958860       0.00000000
Si      -0.53704872       3.63804570       0.09553851       0.00000000
