10
Lattice="16.28999089631971 0.0 0.0 0.0 16.28999089631971 0.0 0.0 0.0 34.61538196595647" Properties=species:S:1:pos:R:3:initial_magmoms:R:1 pbc="T T T"
Si      -2.29560309      -0.12961953       0.56329643       0.00000000
Si      -0.17956467       1.69145586      -1.65392387       0.00000000
Si       0.90090216      -2.14816230      -0.47547715       0.00000000
Si       1.15585695       1.44772488       1.56537768       0.00000000
Si      -2.15695890       0.87917130       2.71280900       0.00000000
Si       3.02531364      -1.48714668      -1.26578138       0.00000000
Si      -2.07070335       2.84392449      -0.88553120       0.00000000
Si      -0.80822835       0.48000114      -3.57016326       0.00000000
Si       2.74898637       2.49678459       0.16909624       0.00000000
Si      -3.53458791       0.95731443      -1.10298515       0.00000000
