10
Lattice="16.28999089631971 0.0 0.0 0.0 16.28999089631971 0.0 0.0 0.0 34.61538196595647" Properties=species:S:1:pos:R:3:initial_magmoms:R:1 pbc="T T T"
Si       1.36090081       1.34469063      -1.36840566       0.00000000
Si      -1.35367198      -1.36200690      -1.35896950       0.00000000
Si       1.35713782      -1.35801585       1.36080066       0.00000000
Si      -1.35952716       1.35685926       1.36007373       0.00000000
Si      -0.08424536       2.65766463      -2.67931168       0.00000000
Si       2.58934600      -0.22367799      -2.76091749       0.00000000
Si       2.71613107       2.71334385       0.00114231       0.00000000
Si      -2.71375666      -2.71645361       0.00218077       0.00000000
Si      -2.71512502       2.71632492       0.00387692       0.00000000
Si       2.71445320       0.00022806       2.71838208       0.00000000
