10
Lattice="16.28999089631971 0.0 0.0 0.0 16.28999089631971 0.0 0.0 0.0 34.61538196595647" Properties=species:S:1:pos:R:3:initial_magmoms:R:1 pbc="T T T"
Si       1.67295042      -1.43066925      -1.08027744       0.00000000
Si      -1.52917488       1.23316929      -1.47714302       0.00000000
Si       1.19260719       2.14995420       0.69919649       0.00000000
Si      -0.46547046      -0.67181589       2.42602040       0.00000000
Si      -1.63986543      -1.99922283       0.06715388       0.00000000
Si       2.94936966      -2.36227806       0.75617344       0.00000000
Si      -1.55360988      -0.03446964      -3.53118632       0.00000000
Si      -3.76711137       0.83122983      -0.72841189       0.00000000
Si       2.66142762       1.59679467       2.43093579       0.00000000
Si       0.51709347      -2.87839413      -2.64565512       0.00000000
