10
Lattice="16.28999089631971 0.0 0.0 0.0 16.28999089631971 0.0 0.0 0.0 34.61538196595647" Properties=species:S:1:pos:R:3:initial_magmoms:R:1 pbc="T T T"
Si       1.35659810      -1.35677781       1.35643912       0.00000000
Si      -1.35816246      -1.35648459      -1.35699296       0.00000000
Si       1.35641491       1.35834165      -1.35747758       0.00000000
Si      -1.35930276       1.35925389       1.36059296       0.00000000
Si      -0.00149868      -2.69677692       2.72163593       0.00000000
Si       2.71287211      -2.71262709       0.00024231       0.00000000
Si       2.70722274      -0.00741195       2.71893593       0.00000000
Si      -0.00112401      -2.71381626      -2.71453977       0.00000000
Si       2.71430237       0.00068418      -2.71447054       0.00000000
Si      -2.71650411      -2.71283886      -0.00027692       0.00000000
