10
Lattice="16.28999089631971 0.0 0.0 0.0 16.28999089631971 0.0 0.0 0.0 34.61538196595647" Properties=species:S:1:pos:R:3:initial_magmoms:R:1 pbc="T T T"
Si      -1.35716877       1.35744570      -1.36080066       0.00000000
Si       1.35930276      -1.35925389      -1.36059296       0.00000000
Si      -1.36466217      -1.36049193       1.37547759       0.00000000
Si       1.36637262       1.35886293       1.37824682       0.00000000
Si       2.71680054       2.71278999       0.00100385       0.00000000
Si      -2.71586880       2.71526604       0.00038077       0.00000000
Si      -2.71425609      -0.00045612      -2.71758593       0.00000000
Si      -2.71614573      -2.71572219      -0.00553846       0.00000000
Si       2.71590086      -2.71603170      -0.00415385       0.00000000
Si       0.00058644       2.71435057      -2.71765516       0.00000000
