10
Lattice="16.28999089631971 0.0 0.0 0.0 16.28999089631971 0.0 0.0 0.0 34.61538196595647" Properties=species:S:1:pos:R:3:initial_magmoms:R:1 pbc="T T T"
Si      -1.35658251      -1.35503108       1.35678527       0.00000000
Si      -1.35410643       1.35801207      -1.35962373       0.00000000
Si       1.35872496       1.35943419       1.35643912       0.00000000
Si       1.36086058      -1.35587816      -1.35858527       0.00000000
Si      -2.71407708      -2.71184147      -0.00051923       0.00000000
Si       0.00139624      -2.71307951       2.71343208       0.00000000
Si       2.71509389      -2.71237904      -0.00124615       0.00000000
Si      -2.71373499       0.00218329       2.71384746       0.00000000
Si      -2.71270872       2.71706885      -0.00159231       0.00000000
Si       2.71657628       0.00200054       2.71363977       0.00000000
