10
Lattice="16.28999089631971 0.0 0.0 0.0 16.28999089631971 0.0 0.0 0.0 34.61538196595647" Properties=species:S:1:pos:R:3:initial_magmoms:R:1 pbc="T T T"
Si      -0.43946022      -2.21180733      -0.82412347       0.00000000
Si       0.79170052       0.18528246       2.26793186       0.00000000
Si       2.12335915       0.39824163      -1.14646209       0.00000000
Si      -2.43182074       0.25585074       0.11627313       0.00000000
Si      -1.04627412       3.33268965      -0.35106940       0.00000000
Si       1.15117195      -2.10810519       2.71997439       0.00000000
Si       2.39944207       1.94608485       2.03479714       0.00000000
Si      -2.00236747      -3.07525878       0.73983497       0.00000000
Si      -0.46423731      -2.10755133      -3.17824769       0.00000000
Si       2.85443806      -1.67697405      -1.98238942       0.00000000
