10
Lattice="16.28999089631971 0.0 0.0 0.0 16.28999089631971 0.0 0.0 0.0 34.61538196595647" Properties=species:S:1:pos:R:3:initial_magmoms:R:1 pbc="T T T"
Si      -0.02477709       0.10425600      -2.35412421       0.00000000
Si      -1.56290725      -0.86345145       1.56395845       0.00000000
Si       0.43946022       2.21180733       0.82412347       0.00000000
Si       2.08703733      -1.35830907      -0.28952322       0.00000000
Si      -1.99236052       2.46765807       0.94039661       0.00000000
Si       3.29389827       0.53483328      -1.15826594       0.00000000
Si       2.61825423      -1.39417965       2.08426254       0.00000000
Si      -2.63874772      -2.52581337       0.22953473       0.00000000
Si       2.56281936       2.61004896      -0.32233862       0.00000000
Si       1.59063216       0.10370214       3.54409786       0.00000000
