10
Lattice="16.28999089631971 0.0 0.0 0.0 16.28999089631971 0.0 0.0 0.0 34.69518985606464" Properties=species:S:1:pos:R:3:initial_magmoms:R:1 pbc="T T T"
Si       2.18036437      -0.61660908      -0.26892257       0.00000000
Si      -0.46559915       0.86591124      -2.13677385       0.00000000
Si      -1.23583500      -1.87261695       0.74896548       0.00000000
Si       0.07951964       1.69766235       1.67983795       0.00000000
Si       1.15894879       2.61879410      -1.96041810       0.00000000
Si       3.03210331       1.50242670      -1.02774149       0.00000000
Si      -2.56583205       1.92702555      -1.70467972       0.00000000
Si      -3.45795390      -1.01877660       0.58926343       0.00000000
Si      -0.25098980       0.49897899       3.69687863       0.00000000
Si       2.23547344      -2.57237019      -1.63265246       0.00000000
