10
Lattice="16.28999089631971 0.0 0.0 0.0 16.28999089631971 0.0 0.0 0.0 34.69518985606464" Properties=species:S:1:pos:R:3:initial_magmoms:R:1 pbc="T T T"
Si       0.46559915      -0.86591124       2.13677385       0.00000000
Si      -2.10023290       1.06111431       0.43209414       0.00000000
Si       1.62454794       1.75288286       0.17635575       0.00000000
Si       0.44359951      -1.54279332      -1.92319014       0.00000000
Si       2.64596352      -1.48252032       1.86785128       0.00000000
Si       3.49770246       0.63651546       1.10903236       0.00000000
Si      -3.62452078       0.15990264      -1.06413676       0.00000000
Si      -1.75698631       3.40504073       0.05370818       0.00000000
Si       0.54511879       0.83175111       3.81661180       0.00000000
Si       0.20795488      -0.20269647      -3.93336118       0.00000000
