10
Lattice="16.28999089631971 0.0 0.0 0.0 16.28999089631971 0.0 0.0 0.0 34.69518985606464" Properties=species:S:1:pos:R:3:initial_magmoms:R:1 pbc="T T T"
Si       1.34814411       1.33268565       1.36490953       0.00000000
Si      -1.36029645       1.34983087      -1.35751945       0.00000000
Si       1.35739683      -1.36214529      -1.35790110       0.00000000
Si      -1.36498797      -1.37248944       1.37840597       0.00000000
Si       2.33324928      -0.34678959       2.72971498       0.00000000
Si      -2.71138905       2.71031303       0.00350422       0.00000000
Si       0.00027693       2.71091576      -2.71493482       0.00000000
Si      -2.71482624      -0.00414798      -2.71503890       0.00000000
Si       2.71217097       2.71782272       0.00385117       0.00000000
Si       2.71507059      -0.00425158      -2.71528177       0.00000000
