10
Lattice="16.28999089631971 0.0 0.0 0.0 16.28999089631971 0.0 0.0 0.0 34.69518985606464" Properties=species:S:1:pos:R:3:initial_magmoms:R:1 pbc="T T T"
Si      -0.87967629      -1.91010743      -1.21263226       0.00000000
Si       1.88884179       0.83953773      -1.33024902       0.00000000
Si       0.56135340      -0.58387758       2.39851451       0.00000000
Si      -2.08986365       1.61495802       0.00145720       0.00000000
Si       0.45238959       2.18196405      -2.72614137       0.00000000
Si      -2.24925967      -0.57979205      -2.75306485       0.00000000
Si       3.48218298       1.17082746       0.61233575       0.00000000
Si       1.16574498      -2.87564831       2.07647358       0.00000000
Si      -1.00887228       3.46313997      -1.15639132       0.00000000
Si       2.52014445       0.67821786       2.91994881       0.00000000
