10
Lattice="16.28999089631971 0.0 0.0 0.0 16.28999089631971 0.0 0.0 0.0 34.69518985606464" Properties=species:S:1:pos:R:3:initial_magmoms:R:1 pbc="T T T"
Si       1.35107631      -1.35899325      -1.36137062       0.00000000
Si       1.36071999       1.34402274       1.36872600       0.00000000
Si      -1.36482507       1.35863487      -1.35692963       0.00000000
Si      -1.36194174      -1.38513870       1.36241148       0.00000000
Si      -0.36857754       2.31741540       2.67565984       0.00000000
Si       2.59752195      -0.17440074       2.76791440       0.00000000
Si       2.70062136      -2.70744687      -0.00721660       0.00000000
Si       2.70777267       0.00133578      -2.71614915       0.00000000
Si       2.71000440       2.71935486       0.00010409       0.00000000
Si      -0.00571779      -2.71393029      -2.71653080       0.00000000
