10
Lattice="16.28999089631971 0.0 0.0 0.0 16.28999089631971 0.0 0.0 0.0 34.69518985606464" Properties=species:S:1:pos:R:3:initial_magmoms:R:1 pbc="T T T"
Si       0.64982439      -1.80309123      -1.35762354       0.00000000
Si       0.60167115       1.80429669      -1.37809371       0.00000000
Si      -2.05032456       1.08260082       0.69147552       0.00000000
Si       1.00390383      -0.04359204       2.22181181       0.00000000
Si      -0.93814110      -3.34337589      -0.60466811       0.00000000
Si       3.10374999      -0.83541636       1.46323575       0.00000000
Si      -0.54931509      -1.07447211      -3.35738601       0.00000000
Si       0.05315427       3.61717821       0.06928633       0.00000000
Si      -0.88686018       2.87738415       2.12199369       0.00000000
Si      -2.82244287      -2.05530930      -1.26602819       0.00000000
