10
Lattice="16.28999089631971 0.0 0.0 0.0 16.28999089631971 0.0 0.0 0.0 34.69518985606464" Properties=species:S:1:pos:R:3:initial_magmoms:R:1 pbc="T T T"
Si       1.35940050      -1.35412254       1.35814397       0.00000000
Si      -1.35674523      -1.35731538      -1.35783171       0.00000000
Si       1.35767376       1.35789371      -1.35738067       0.00000000
Si      -1.35739683       1.36214529       1.35790110       0.00000000
Si      -0.00925272       2.69483094       2.72281063       0.00000000
Si       2.71075374      -2.71800279       0.00048573       0.00000000
Si      -2.71443528       0.00034209      -2.71486543       0.00000000
Si       0.00058644      -2.71469592      -2.71465726       0.00000000
Si       2.71547784       2.71398472      -0.00024287       0.00000000
Si       0.00109143       2.71477641      -2.71472665       0.00000000
