10
Lattice="16.28999089631971 0.0 0.0 0.0 16.28999089631971 0.0 0.0 0.0 34.69518985606464" Properties=species:S:1:pos:R:3:initial_magmoms:R:1 pbc="T T T"
Si      -1.35159759      -1.34192133      -1.37743450       0.00000000
Si       1.36498797       1.37248944      -1.37840597       0.00000000
Si       1.00320336      -1.74571785       1.29739265       0.00000000
Si      -1.32737436       1.36269108       1.52461158       0.00000000
Si       2.12389020      -0.45416520       2.95828702       0.00000000
Si      -2.69695774       2.69300646      -0.01582102       0.00000000
Si       2.71313208       2.70517509      -0.01349644       0.00000000
Si      -2.71378694      -2.71821456      -0.00267153       0.00000000
Si       0.00695583      -2.70449838      -2.73519682       0.00000000
Si      -2.71132878       0.00791694      -2.73720914       0.00000000
