10
Lattice="16.28999089631971 0.0 0.0 0.0 16.28999089631971 0.0 0.0 0.0 34.69518985606464" Properties=species:S:1:pos:R:3:initial_magmoms:R:1 pbc="T T T"
Si      -1.36071999      -1.34402274      -1.36872600       0.00000000
Si       1.34928441       1.37533212      -1.36862192       0.00000000
Si      -1.72929753       0.97339266       1.30693384       0.00000000
Si       1.23680196      -1.51842348       1.39918840       0.00000000
Si      -0.78436350      -2.26551546       2.67017800       0.00000000
Si      -0.60861069       2.26494531       2.96782820       0.00000000
Si       2.69526195       2.70585045       0.02234371       0.00000000
Si       2.69988831      -2.72302011      -0.00634922       0.00000000
Si       2.70063765       0.01145187      -2.72628015       0.00000000
Si      -0.00964368      -2.70301599      -2.73009663       0.00000000
