10
Lattice="16.28999089631971 0.0 0.0 0.0 16.28999089631971 0.0 0.0 0.0 34.69518985606464" Properties=species:S:1:pos:R:3:initial_magmoms:R:1 pbc="T T T"
Si       0.98003898      -0.83843001      -1.95174430       0.00000000
Si      -1.79080857       1.21279050      -1.00546716       0.00000000
Si       2.02136094       0.84229074       0.98614193       0.00000000
Si      -0.14476923      -1.56786363       1.81629420       0.00000000
Si       2.19349737      -1.28216961       2.01145476       0.00000000
Si       2.23094808       1.08439272      -2.47369903       0.00000000
Si      -3.37015665       1.22536638       0.73491392       0.00000000
Si      -0.63358326      -1.17493254      -3.57142075       0.00000000
Si      -0.97792128       3.37746176      -1.62227859       0.00000000
Si      -2.62273887      -0.11891700      -2.89607851       0.00000000
