10
Lattice="16.28999089631971 0.0 0.0 0.0 16.28999089631971 0.0 0.0 0.0 34.69518985606464" Properties=species:S:1:pos:R:3:initial_magmoms:R:1 pbc="T T T"
Si       1.35425286       1.35646830       1.35519487       0.00000000
Si       1.35627282      -1.35732515      -1.35682555       0.00000000
Si      -1.35760860       1.35641943      -1.35727659       0.00000000
Si      -1.35842310      -1.35946729       1.35758884       0.00000000
Si       0.00750969       2.70845685       2.70955706       0.00000000
Si      -0.00291591       2.71309950      -2.71382457       0.00000000
Si       2.71417464       2.71306692      -0.00020817       0.00000000
Si       0.00037467      -2.71118945       2.71677366       0.00000000
Si       2.71373481      -0.00216657      -2.71469195       0.00000000
Si      -0.00187335      -2.71586423      -2.71295719       0.00000000
