10
Lattice="16.28999089631971 0.0 0.0 0.0 16.28999089631971 0.0 0.0 0.0 34.69518985606464" Properties=species:S:1:pos:R:3:initial_magmoms:R:1 pbc="T T T"
Si      -0.95317677       2.01593637      -0.69525730       0.00000000
Si       0.38514447      -0.92527200      -2.13812696       0.00000000
Si       1.29345858      -1.42601031       1.37965500       0.00000000
Si      -2.06368236       0.22283091       1.19955216       0.00000000
Si      -0.64070199      -2.93989702      -1.46646241       0.00000000
Si      -0.09796806       1.13210613      -3.15372513       0.00000000
Si       3.46341690       1.07312004       0.45509706       0.00000000
Si      -1.45591875       2.01938985       2.77329216       0.00000000
Si       0.55729719       3.67181487      -0.43018590       0.00000000
Si       0.56715264       3.15605718       1.92922711       0.00000000
