10
Lattice="16.28999089631971 0.0 0.0 0.0 16.28999089631971 0.0 0.0 0.0 34.69518985606464" Properties=species:S:1:pos:R:3:initial_magmoms:R:1 pbc="T T T"
Si      -0.23252346       0.10246410       2.32823732       0.00000000
Si       1.81104075       1.53766197      -0.09829153       0.00000000
Si       0.39389220      -1.80691612      -1.51305808       0.00000000
Si      -2.14071419       1.10214882      -0.18260089       0.00000000
Si       0.90301986       2.31296823      -2.20883580       0.00000000
Si      -2.03549414       1.68042753       2.14319247       0.00000000
Si      -0.40312863      -0.95511528      -3.57138606       0.00000000
Si       1.65319065       1.08686880       3.42462328       0.00000000
Si      -1.02665933      -1.83685877       3.35875096       0.00000000
Si      -3.72991220      -0.43306965      -1.43166311       0.00000000
