10
Lattice="16.28999089631971 0.0 0.0 0.0 16.28999089631971 0.0 0.0 0.0 34.69518985606464" Properties=species:S:1:pos:R:3:initial_magmoms:R:1 pbc="T T T"
Si      -0.06856461      -2.42549140      -0.31468555       0.00000000
Si       0.28909863      -0.92696616       2.25220481       0.00000000
Si      -2.23500429       0.90723897      -0.97923759       0.00000000
Si       2.63733471       1.00405044      -1.18348828       0.00000000
Si       1.17639864      -2.43772519      -2.31732772       0.00000000
Si       2.32562556       2.76030792       0.20841412       0.00000000
Si      -1.52726895       3.02792004      -1.80772449       0.00000000
Si       1.13911083       0.94553676       3.57611297       0.00000000
Si      -2.74722705      -0.36711144      -2.96814046       0.00000000
Si       1.15028577      -0.66847644      -3.93089782       0.00000000
