10
Lattice="16.28999089631971 0.0 0.0 0.0 16.28999089631971 0.0 0.0 0.0 34.69518985606464" Properties=species:S:1:pos:R:3:initial_magmoms:R:1 pbc="T T T"
Si      -1.87038522      -0.93456382       1.23345775       0.00000000
Si       0.85001220       1.87250292       1.32390816       0.00000000
Si      -0.28909863       0.92696616      -2.25220481       0.00000000
Si       1.66961097      -1.98363444       0.09893759       0.00000000
Si      -0.35766324      -1.49852524      -2.56689036       0.00000000
Si      -0.52391898      -2.12609654       2.77327971       0.00000000
Si       2.19688569       0.58784094       2.76896016       0.00000000
Si       3.36948876      -0.89700722       1.35660493       0.00000000
Si       2.60594388       2.88173358       0.06281173       0.00000000
Si      -2.84969115      -2.66373170      -0.19987910       0.00000000
