10
Lattice="16.28999089631971 0.0 0.0 0.0 16.28999089631971 0.0 0.0 0.0 34.69518985606464" Properties=species:S:1:pos:R:3:initial_magmoms:R:1 pbc="T T T"
Si      -1.51047396      -1.65587850      -0.26507140       0.00000000
Si       0.00985545      -0.51575769       2.35941301       0.00000000
Si       2.00194326      -1.03599513      -0.90138154       0.00000000
Si      -2.16052641       1.99254393      -0.03042770       0.00000000
Si       0.76124799       1.82263923       2.32794445       0.00000000
Si       3.30239025       0.96808212      -0.54173100       0.00000000
Si       2.14879761       2.78330940       0.55401310       0.00000000
Si       0.20799072       0.87871518      -3.44918953       0.00000000
Si      -0.79203609       2.73325023      -2.15391329       0.00000000
Si      -0.55729719      -3.67181487       0.43018590       0.00000000
