10
Lattice="16.28999089631971 0.0 0.0 0.0 16.28999089631971 0.0 0.0 0.0 34.69518985606464" Properties=species:S:1:pos:R:3:initial_magmoms:R:1 pbc="T T T"
Si       1.76689485      -1.45932336       0.52674267       0.00000000
Si      -0.00985545       0.51575769      -2.35941301       0.00000000
Si       0.75139254       2.33839692      -0.03146855       0.00000000
Si      -2.02307139      -1.13666733       0.84406505       0.00000000
Si      -1.52032941      -1.14012081      -2.62448441       0.00000000
Si      -1.36858806       3.34928916      -0.27096958       0.00000000
Si      -0.56715264      -3.15605718      -1.92922711       0.00000000
Si       3.47020983      -0.12735522       1.44477790       0.00000000
Si       1.99208781      -0.52023744      -3.26079455       0.00000000
Si       2.89626426      -2.08293714      -1.47413005       0.00000000
