10
Lattice="16.28999089631971 0.0 0.0 0.0 16.28999089631971 0.0 0.0 0.0 34.69518985606464" Properties=species:S:1:pos:R:3:initial_magmoms:R:1 pbc="T T T"
Si      -1.23564537       1.70585622       0.96796164       0.00000000
Si       1.08543528      -1.27563732       1.72077829       0.00000000
Si       1.75787019       1.51055541      -0.73338733       0.00000000
Si      -1.98003321      -1.28259315      -0.79299370       0.00000000
Si       1.23631326      -0.80314587      -3.37712758       0.00000000
Si      -3.19816683       0.76159008       1.88669078       0.00000000
Si      -1.18240965      -3.51256383      -0.84808969       0.00000000
Si       0.53137980      -2.92159521      -2.41090070       0.00000000
Si       3.07314108      -0.08156403       2.31864614       0.00000000
Si      -0.73785555      -1.76502150       3.35655332       0.00000000
