10
Lattice="16.28999089631971 0.0 0.0 0.0 16.28999089631971 0.0 0.0 0.0 34.69518985606464" Properties=species:S:1:pos:R:3:initial_magmoms:R:1 pbc="T T T"
Si       1.23564537      -1.70585622      -0.96796164       0.00000000
Si      -1.19526246       1.66149855      -1.16902038       0.00000000
Si      -1.96252146      -0.94426614       0.91872914       0.00000000
Si       1.02842028       1.20435228       1.77299458       0.00000000
Si      -2.96056089       1.16822106       0.41162396       0.00000000
Si       2.99351556      -0.19530081      -1.70134898       0.00000000
Si      -1.03074975      -1.69883523       2.90513396       0.00000000
Si      -0.74438784      -2.98844937      -1.76095535       0.00000000
Si       0.17459622       0.17674650       3.69649698       0.00000000
Si      -0.02855637       3.67548012      -0.76676412       0.00000000
