10
Lattice="16.28999089631971 0.0 0.0 0.0 16.28999089631971 0.0 0.0 0.0 34.69518985606464" Properties=species:S:1:pos:R:3:initial_magmoms:R:1 pbc="T T T"
Si      -1.35998694      -1.32844950      -1.36959338       0.00000000
Si      -1.46308635       1.20459663       1.40553762       0.00000000
Si       1.36849032       1.38249972      -1.35772762       0.00000000
Si       0.84903480      -1.74871521       1.38281226       0.00000000
Si      -2.69838963      -2.67977016       0.01099838       0.00000000
Si      -0.83297286      -3.50282241       1.25825646       0.00000000
Si       2.70052362      -2.69522937       0.01720882       0.00000000
Si      -0.18107964       2.21713416       3.10050268       0.00000000
Si       0.00364896      -2.69532711      -2.71958398       0.00000000
Si      -2.69988831       2.72302011       0.00634922       0.00000000
