10
Lattice="16.28999089631971 0.0 0.0 0.0 16.28999089631971 0.0 0.0 0.0 34.69518985606464" Properties=species:S:1:pos:R:3:initial_magmoms:R:1 pbc="T T T"
Si      -1.28200671      -1.01253753      -1.69496506       0.00000000
Si      -1.95968700       0.94263714       0.95425704       0.00000000
Si       0.56698974      -1.54080594       1.86896153       0.00000000
Si       1.40045130       1.70030133      -1.47038297       0.00000000
Si      -1.00445769       2.47073688       2.35518019       0.00000000
Si       2.22435063      -0.16452900       3.00630519       0.00000000
Si      -3.30317217      -1.75962951      -0.42397546       0.00000000
Si       1.56701655      -3.39534099       0.57368528       0.00000000
Si       0.18107964      -2.21713416      -3.10050268       0.00000000
Si      -3.38019129      -0.80505180       1.88599688       0.00000000
