10
Lattice="16.28999089631971 0.0 0.0 0.0 16.28999089631971 0.0 0.0 0.0 34.69518985606464" Properties=species:S:1:pos:R:3:initial_magmoms:R:1 pbc="T T T"
Si       1.51094474      -1.12783815       1.45932907       0.00000000
Si      -0.94116615      -1.84889871      -1.27056428       0.00000000
Si      -1.19782230       1.57389093       1.41926999       0.00000000
Si       1.73488337       1.13160114      -1.31750690       0.00000000
Si      -0.09112952       1.88185338      -2.67308342       0.00000000
Si       2.74751864      -2.44245744       0.01086654       0.00000000
Si       0.86180453      -3.42686214      -1.08551942       0.00000000
Si       0.17893262      -2.49307047       2.80645037       0.00000000
Si       3.42736550      -0.59652351      -1.47599461       0.00000000
Si      -2.53730664       0.21991500       2.80908721       0.00000000
