10
Lattice="16.28999089631971 0.0 0.0 0.0 16.28999089631971 0.0 0.0 0.0 34.69518985606464" Properties=species:S:1:pos:R:3:initial_magmoms:R:1 pbc="T T T"
Si       0.85382406       1.02760578      -1.92350240       0.00000000
Si      -1.81441278       1.34115570       0.71087014       0.00000000
Si      -1.20534597      -1.87558173      -0.79136303       0.00000000
Si       1.95945894      -0.96607845       1.07086763       0.00000000
Si       2.01619701       0.90451854       2.43400771       0.00000000
Si       0.53972028      -2.32365447       2.32201157       0.00000000
Si       0.10510308       2.57232132       2.27406279       0.00000000
Si      -2.93299821      -0.27541503       2.12990420       0.00000000
Si      -2.13711768      -1.12101264      -2.77776784       0.00000000
Si      -0.17459622      -0.17674650      -3.69649698       0.00000000
