10
Lattice="16.28999089631971 0.0 0.0 0.0 16.28999089631971 0.0 0.0 0.0 34.69518985606464" Properties=species:S:1:pos:R:3:initial_magmoms:R:1 pbc="T T T"
Si       1.96382466       1.02317490      -0.64703096       0.00000000
Si      -0.05673807      -1.87059699      -1.36314008       0.00000000
Si       0.71711838      -0.35606682       2.19100285       0.00000000
Si      -1.91109393       1.66780278      -0.15994491       0.00000000
Si      -1.06481214       1.45580472       2.09524962       0.00000000
Si      -2.01619701      -0.90451854      -2.43400771       0.00000000
Si      -1.47647673      -3.22817301      -0.11199614       0.00000000
Si       1.26472302       3.29079177      -0.52080979       0.00000000
Si       2.46376476      -0.18292041      -2.66424512       0.00000000
Si       0.03029940      -2.29631985       3.28460730       0.00000000
