10
Lattice="16.28999089631971 0.0 0.0 0.0 16.28999089631971 0.0 0.0 0.0 34.69518985606464" Properties=species:S:1:pos:R:3:initial_magmoms:R:1 pbc="T T T"
Si      -0.10391391       1.21700865       2.00767298       0.00000000
Si      -0.72197280       1.77072856      -1.41046434       0.00000000
Si       2.11281300      -0.75971673      -1.05077911       0.00000000
Si      -1.26939825      -1.71647730       1.37625487       0.00000000
Si      -1.81801287       0.06348213      -2.71222859       0.00000000
Si       1.11726594      -0.38128374       3.20753740       0.00000000
Si       0.92193255       3.23163368       1.33600842       0.00000000
Si       1.13551074      -2.48691285      -2.44930830       0.00000000
Si      -3.39235992      -1.41638292      -1.10525059       0.00000000
Si       0.39912129      -2.61954603       2.81180384       0.00000000
