10
Lattice="16.28999089631971 0.0 0.0 0.0 16.28999089631971 0.0 0.0 0.0 34.69518985606464" Properties=species:S:1:pos:R:3:initial_magmoms:R:1 pbc="T T T"
Si       0.35991126       1.38729796      -2.03907214       0.00000000
Si       1.69116264      -1.31103549       1.38385312       0.00000000
Si      -1.10477151       1.41814829       1.82811213       0.00000000
Si      -0.51846183      -2.18097036      -1.25416242       0.00000000
Si       2.00334420      -2.68196931      -0.72342981       0.00000000
Si      -3.13204572       1.90325748      -0.83771583       0.00000000
Si      -2.17574127      -0.26205723       3.14401190       0.00000000
Si      -1.88708247       1.89102369      -2.84035800       0.00000000
Si       2.37454443       0.37952442      -3.10268848       0.00000000
Si       0.59510628       2.50477551       3.08577946       0.00000000
