10
Lattice="16.28999089631971 0.0 0.0 0.0 16.28999089631971 0.0 0.0 0.0 34.69518985606464" Properties=species:S:1:pos:R:3:initial_magmoms:R:1 pbc="T T T"
Si       1.35348723       1.34592867       1.36681777       0.00000000
Si      -1.36075257       1.35322659      -1.36074611       0.00000000
Si       1.35509994      -1.36399591      -1.35817866       0.00000000
Si      -1.38302100      -1.36034369       1.34978242       0.00000000
Si      -0.22253769       2.49756651       2.73887451       0.00000000
Si       2.58587460      -0.19023462       2.68187028       0.00000000
Si      -2.70749574       2.70521514      -0.00638392       0.00000000
Si       2.70967583       2.71471221       0.00673087       0.00000000
Si      -0.00083079       2.70982521      -2.71614915       0.00000000
Si       2.71367857      -0.00355122      -2.71535116       0.00000000
