10
Lattice="16.28999089631971 0.0 0.0 0.0 16.28999089631971 0.0 0.0 0.0 34.69518985606464" Properties=species:S:1:pos:R:3:initial_magmoms:R:1 pbc="T T T"
Si      -1.35348723      -1.34592867      -1.36681777       0.00000000
Si       1.35618860       1.36878354      -1.36008690       0.00000000
Si       1.23238737      -1.53616329       1.31505252       0.00000000
Si      -1.57602492       1.15163784       1.37205674       0.00000000
Si      -0.37222650      -2.61592313       2.70962645       0.00000000
Si       0.00161271      -2.70992458      -2.72499643       0.00000000
Si      -2.71423980       0.00729792      -2.72756387       0.00000000
Si       2.71942721       0.00702099      -2.72298411       0.00000000
Si      -2.73650823      -2.70627236      -0.01703535       0.00000000
Si       0.00161271       2.72103273      -2.72461478       0.00000000
