10
Lattice="16.28999089631971 0.0 0.0 0.0 16.28999089631971 0.0 0.0 0.0 34.69518985606464" Properties=species:S:1:pos:R:3:initial_magmoms:R:1 pbc="T T T"
Si       1.49586739      -1.20379679      -1.31949350       0.00000000
Si      -1.23238737       1.53616329      -1.31505252       0.00000000
Si      -1.60461387      -1.07975984       1.39457394       0.00000000
Si       1.65526341       0.99095328       1.43502855       0.00000000
Si       0.24203456       1.06121205       3.47326801       0.00000000
Si       0.13061871      -2.52789585      -2.68155803       0.00000000
Si      -2.58587460       0.19023462      -2.68187028       0.00000000
Si       2.86545077      -2.53411217       0.22093909       0.00000000
Si      -2.80841229       2.68780113       0.05700423       0.00000000
Si      -2.88676719      -2.62603664       0.09045041       0.00000000
