10
Lattice="16.28999089631971 0.0 0.0 0.0 16.28999089631971 0.0 0.0 0.0 34.69518985606464" Properties=species:S:1:pos:R:3:initial_magmoms:R:1 pbc="T T T"
Si       1.35123921      -1.35698958      -1.36199513       0.00000000
Si      -1.36405944       1.35889551      -1.36053794       0.00000000
Si       1.37174832       1.35332433       1.36314008       0.00000000
Si      -1.38223908      -1.35835794       1.37531809       0.00000000
Si      -0.15475500       2.29037400       2.84171111       0.00000000
Si       2.70581510      -2.70923877       0.00253275       0.00000000
Si       2.70253044       2.72644101      -0.00503081       0.00000000
Si       2.70997776       0.00263898      -2.71954928       0.00000000
Si      -2.71135647      -2.71873584      -0.01058204       0.00000000
Si      -2.71427238       2.71937115       0.00038165       0.00000000
