10
Lattice="16.28999089631971 0.0 0.0 0.0 16.28999089631971 0.0 0.0 0.0 34.69518985606464" Properties=species:S:1:pos:R:3:initial_magmoms:R:1 pbc="T T T"
Si       1.34732961      -1.34635221      -1.35408463       0.00000000
Si       1.34897490       1.33690401       1.36869131       0.00000000
Si      -1.36907187       1.36389654      -1.34940077       0.00000000
Si      -1.35981427      -1.34304534       1.39433107       0.00000000
Si      -0.39467412       2.24152029       2.64970783       0.00000000
Si      -2.23025901       0.43937388       2.75476492       0.00000000
Si       2.70313002      -2.70847314       0.01366991       0.00000000
Si       2.70519885       0.00811242      -2.71025097       0.00000000
Si      -0.00882918      -2.70643689      -2.70924480       0.00000000
Si      -0.01065366       2.72349252      -2.70924480       0.00000000
