10
Lattice="16.28999089631971 0.0 0.0 0.0 16.28999089631971 0.0 0.0 0.0 34.69518985606464" Properties=species:S:1:pos:R:3:initial_magmoms:R:1 pbc="T T T"
Si       1.98770580       1.19407329       0.59786785       0.00000000
Si      -1.08543528       1.27563732      -1.72077829       0.00000000
Si       0.80777223      -2.12737626      -0.77179493       0.00000000
Si      -1.82329083      -0.48938418       1.63577503       0.00000000
Si      -1.25315712      -3.22159185      -0.58475306       0.00000000
Si       0.67243491       2.78619273      -2.45416563       0.00000000
Si      -2.32108065       2.98149354      -0.75281665       0.00000000
Si       1.96566543       1.55786157       2.95391542       0.00000000
Si       2.11735791       3.22858026      -0.66222746       0.00000000
Si      -3.06546849      -0.00695583      -2.51377200       0.00000000
