10
Lattice="16.28999089631971 0.0 0.0 0.0 16.28999089631971 0.0 0.0 0.0 34.69518985606464" Properties=species:S:1:pos:R:3:initial_magmoms:R:1 pbc="T T T"
Si       1.27321011      -1.33556823      -1.44135002       0.00000000
Si       1.35860229       1.33286409       1.36711615       0.00000000
Si      -1.35887922      -1.38367260       1.36028119       0.00000000
Si      -1.34298018       1.39447287      -1.42156334       0.00000000
Si      -0.68755203      -2.20351572      -2.50398205       0.00000000
Si      -2.46948255      -0.39164418      -2.59973527       0.00000000
Si       2.70215924       2.67441075      -0.03082322       0.00000000
Si      -0.00024435       2.68721469       2.72210285       0.00000000
Si      -2.72668536       2.68762194      -0.00385811       0.00000000
Si       2.71245483      -0.02601513       2.72328249       0.00000000
