10
Lattice="16.28999089631971 0.0 0.0 0.0 16.28999089631971 0.0 0.0 0.0 34.69518985606464" Properties=species:S:1:pos:R:3:initial_magmoms:R:1 pbc="T T T"
Si      -1.52650332       0.93704967       1.47857104       0.00000000
Si       1.33078212       1.37311668      -1.36817088       0.00000000
Si      -1.37174832      -1.35332433      -1.36314008       0.00000000
Si       1.83369592      -0.92012436       1.38107750       0.00000000
Si      -0.13659165       2.41153902       2.62406807       0.00000000
Si      -1.80232560      -0.85574628       3.09071863       0.00000000
Si       2.68930374       2.70746316       0.00818807       0.00000000
Si       2.70414067      -2.70254358       0.02064365       0.00000000
Si       2.69488306       0.00439830      -2.72308819       0.00000000
Si      -0.02050911      -2.71031391      -2.72513521       0.00000000
