10
Lattice="16.28999089631971 0.0 0.0 0.0 16.28999089631971 0.0 0.0 0.0 34.69518985606464" Properties=species:S:1:pos:R:3:initial_magmoms:R:1 pbc="T T T"
Si      -0.74181402       2.07195768       0.79882250       0.00000000
Si      -1.18470654      -0.56703861      -1.97197161       0.00000000
Si       0.35235270      -2.05105761       1.22997986       0.00000000
Si       2.12055075       0.92489733      -0.70792105       0.00000000
Si       2.84213259      -1.22482881      -1.28386152       0.00000000
Si       1.53411075      -3.03279075      -0.49572515       0.00000000
Si       0.99963585       2.83618674       2.22118730       0.00000000
Si       0.20284308       0.39363156      -3.74590296       0.00000000
Si      -0.97301799       3.45216051      -1.17183069       0.00000000
Si       3.03911127       1.77653853       1.40883367       0.00000000
