10
Lattice="16.28999089631971 0.0 0.0 0.0 16.28999089631971 0.0 0.0 0.0 34.69518985606464" Properties=species:S:1:pos:R:3:initial_magmoms:R:1 pbc="T T T"
Si      -1.08212841       1.45592757      -1.42253827       0.00000000
Si       1.28215332       1.54627679       1.30412353       0.00000000
Si       1.64362842      -1.26087858      -1.38673282       0.00000000
Si      -1.58133546      -1.06826562       1.61863560       0.00000000
Si       2.08938798      -0.28556370       2.51557615       0.00000000
Si       0.10182879      -1.45197657       3.27554001       0.00000000
Si      -2.41373817       0.10184010      -2.77148801       0.00000000
Si      -2.71524978       2.54002544      -0.09045041       0.00000000
Si      -2.55863772      -2.79546174       0.22010641       0.00000000
Si       0.30465558      -2.61957861      -2.76774093       0.00000000
