10
Lattice="16.28999089631971 0.0 0.0 0.0 16.28999089631971 0.0 0.0 0.0 34.69518985606464" Properties=species:S:1:pos:R:3:initial_magmoms:R:1 pbc="T T T"
Si      -0.10241523      -1.18786680       2.02790029       0.00000000
Si      -2.08409373      -0.79428411      -0.74896548       0.00000000
Si       1.52133939      -0.86910408      -1.60520855       0.00000000
Si       0.12637782       2.40556778       0.15054251       0.00000000
Si      -2.26750284      -0.50344245       2.79414398       0.00000000
Si       2.04766929       1.00950012      -2.96109733       0.00000000
Si      -1.76269203      -2.92511385      -1.65353898       0.00000000
Si       0.16983954      -2.28807711      -3.03201434       0.00000000
Si       1.42187265      -0.28665513       3.52413118       0.00000000
Si      -0.30198402       2.94808994       2.43064227       0.00000000
