10
Lattice="16.28999089631971 0.0 0.0 0.0 16.28999089631971 0.0 0.0 0.0 34.69518985606464" Properties=species:S:1:pos:R:3:initial_magmoms:R:1 pbc="T T T"
Si       1.48498011       1.16516736       1.44151655       0.00000000
Si       0.13387122      -2.43297666       0.13801754       0.00000000
Si       1.02599307       0.51282549      -2.15592561       0.00000000
Si      -2.01463317       1.00777354       1.06361633       0.00000000
Si      -0.49829481      -0.38838618      -3.65215651       0.00000000
Si       1.03004928       3.50377442       1.30523377       0.00000000
Si       3.67134476       0.28346229       1.22859205       0.00000000
Si       3.59182512      -1.41420006      -0.45124589       0.00000000
Si      -0.37120023      -3.06149373       2.37925867       0.00000000
Si      -2.37454443      -0.37952442       3.10268848       0.00000000
