10
Lattice="16.28999089631971 0.0 0.0 0.0 16.28999089631971 0.0 0.0 0.0 34.69518985606464" Properties=species:S:1:pos:R:3:initial_magmoms:R:1 pbc="T T T"
Si      -1.84569840      -0.83834856      -1.17131026       0.00000000
Si       2.01969773      -0.05147640      -1.28112060       0.00000000
Si      -0.52882064       2.33668647      -0.08885443       0.00000000
Si      -0.10747653      -1.17703395       2.09736009       0.00000000
Si      -2.10029481      -2.95489197      -0.24130518       0.00000000
Si       2.04299243      -0.83991240       2.93549226       0.00000000
Si       1.84071950       1.80937917      -2.69137677       0.00000000
Si      -2.29968441       2.47261023      -1.64011193       0.00000000
Si      -3.60770625       0.66464829      -0.85197556       0.00000000
Si       3.76152227       0.71273637       0.14495658       0.00000000
