10
Lattice="16.28999089631971 0.0 0.0 0.0 16.28999089631971 0.0 0.0 0.0 34.69518985606464" Properties=species:S:1:pos:R:3:initial_magmoms:R:1 pbc="T T T"
Si      -1.35665363      -1.35508365      -1.35960116       0.00000000
Si       1.35841821       1.35959598      -1.35984403       0.00000000
Si       1.36907187      -1.36389654       1.34940077       0.00000000
Si      -1.36410095       1.36871838       1.35491731       0.00000000
Si      -2.69488306      -0.00439830       2.72308819       0.00000000
Si       2.71640148      -2.71024875      -0.00468385       0.00000000
Si      -2.71420300       2.71420722      -0.00489202       0.00000000
Si      -2.71539217      -2.71471221      -0.00204702       0.00000000
Si       0.00184403      -2.71316466      -2.71722470       0.00000000
Si      -2.71350253       0.00249237      -2.71750226       0.00000000
