10
Lattice="16.28999089631971 0.0 0.0 0.0 16.28999089631971 0.0 0.0 0.0 34.69518985606464" Properties=species:S:1:pos:R:3:initial_magmoms:R:1 pbc="T T T"
Si      -1.35010206       1.34548884      -1.35980934       0.00000000
Si       1.35852162       1.33434648       1.37635895       0.00000000
Si      -1.33078212      -1.37311668       1.36817088       0.00000000
Si       1.36410095      -1.36871838      -1.35491731       0.00000000
Si       2.33849870      -0.49109463       2.64419129       0.00000000
Si       0.50291381      -2.29324104       2.74924838       0.00000000
Si      -2.70262818       2.70374904       0.00541245       0.00000000
Si      -2.70613053      -0.00850338      -2.71444909       0.00000000
Si       0.00714839       2.70593190      -2.71524708       0.00000000
Si      -2.70253044      -2.72644101       0.00503081       0.00000000
