10
Lattice="16.28999089631971 0.0 0.0 0.0 16.28999089631971 0.0 0.0 0.0 34.69518985606464" Properties=species:S:1:pos:R:3:initial_magmoms:R:1 pbc="T T T"
Si       1.74364902      -0.90461628      -1.28101652       0.00000000
Si       1.54673550       1.08183519       1.43450812       0.00000000
Si      -0.97997708       1.82544111      -1.26783234       0.00000000
Si      -1.83558489      -1.80214641       0.10505709       0.00000000
Si       0.39467412      -2.24152029      -2.64970783       0.00000000
Si      -2.33849870       0.49109463      -2.64419129       0.00000000
Si       3.02340771      -2.38646871       0.22773935       0.00000000
Si       2.73701322       2.79793782       0.03223185       0.00000000
Si      -0.96514015      -3.58456563      -1.25537676       0.00000000
Si      -2.36852432       3.12750081       0.21056522       0.00000000
