10
Lattice="16.28999089631971 0.0 0.0 0.0 16.28999089631971 0.0 0.0 0.0 34.69518985606464" Properties=species:S:1:pos:R:3:initial_magmoms:R:1 pbc="T T T"
Si      -0.05510907       1.95576111       1.36372989       0.00000000
Si       0.05176962       0.96778890      -2.22625280       0.00000000
Si      -1.51607772      -1.93981320      -0.00770234       0.00000000
Si       1.37549502      -0.90593577       1.83853383       0.00000000
Si       0.82697814       0.90694575       3.28591388       0.00000000
Si       0.89505405      -1.04989050      -3.25107989       0.00000000
Si       1.60919136      -2.84257242      -1.85744272       0.00000000
Si      -2.23547344       2.57237019       1.63265246       0.00000000
Si       0.22450878      -3.78470457      -0.14075846       0.00000000
Si      -2.25747309       1.89548811      -2.42731153       0.00000000
