10
Lattice="16.28999089631971 0.0 0.0 0.0 16.28999089631971 0.0 0.0 0.0 34.69518985606464" Properties=species:S:1:pos:R:3:initial_magmoms:R:1 pbc="T T T"
Si      -1.35383140      -1.35454608      -1.35706841       0.00000000
Si       1.35973119      -1.34983827       1.35977464       0.00000000
Si      -1.35087764       1.36099046       1.35932360       0.00000000
Si       1.36149051       1.36042451      -1.35623573       0.00000000
Si       0.01437104       2.68508952       2.72138813       0.00000000
Si      -2.71036508       0.00276930      -2.71403274       0.00000000
Si      -2.71108184      -2.71498914      -0.00163067       0.00000000
Si       0.00430545      -2.71236645      -2.71392866       0.00000000
Si      -2.71227101       2.71512502       0.00083269       0.00000000
Si       2.71602030       2.71440337       0.00128372       0.00000000
