10
Lattice="16.290000149 0.0 0.0 0.0 16.290000149 0.0 0.0 0.0 29.1751946751" Properties=species:S:1:pos:R:3:initial_magmoms:R:1 pbc="T T T"
Si      -1.33465600      -1.36405945       1.36898766       0.00000000
Si       1.35057133      -1.34911338      -1.37295549       0.00000000
Si       1.35969373       1.34456032       1.36843333       0.00000000
Si      -1.36803421       1.34511418      -1.36391118       0.00000000
Si       2.70956459       2.68517846      -0.01718419       0.00000000
Si      -2.69654888      -2.70614369      -0.00825658       0.00000000
Si      -0.01475874       2.73144206       2.67720339       0.00000000
Si       2.72403011      -2.69742854      -0.03725672       0.00000000
Si      -2.76227904      -0.00280188       2.66553331       0.00000000
Si      -0.01975977       2.70829397      -2.72356277       0.00000000
