10
Lattice="16.290000149 0.0 0.0 0.0 16.290000149 0.0 0.0 0.0 29.1751946751" Properties=species:S:1:pos:R:3:initial_magmoms:R:1 pbc="T T T"
Si       1.32629597      -1.36094806       1.37540620       0.00000000
Si      -1.37077419      -1.36876726      -1.32469971       0.00000000
Si      -1.36556139       1.35040843       1.34920688       0.00000000
Si       1.36700468       1.36435267      -1.34413039       0.00000000
Si      -2.69634037       0.01394424      -2.68458471       0.00000000
Si       0.00886991      -2.71754507      -2.66465806       0.00000000
Si       2.68051627       0.00671148       2.71320558       0.00000000
Si      -2.71800607      -0.02414178       2.69844293       0.00000000
Si      -0.02183512       2.71293662       2.70442385       0.00000000
Si       2.72614456       0.00899208      -2.69727592       0.00000000
