10
Lattice="16.290000149 0.0 0.0 0.0 16.290000149 0.0 0.0 0.0 29.1751946751" Properties=species:S:1:pos:R:3:initial_magmoms:R:1 pbc="T T T"
Si       1.34433226       1.35507226      -1.36563251       0.00000000
Si      -1.35663121      -1.36260476      -1.35046141       0.00000000
Si       1.38909718      -1.34895374       1.33292712       0.00000000
Si      -1.38476404       1.35486049       1.33371485       0.00000000
Si       0.02539611      -2.69887347       2.68254245       0.00000000
Si      -0.03054375       2.72252003       2.67151423       0.00000000
Si      -2.70219011      -0.00173651      -2.70634941       0.00000000
Si       2.70410744      -0.00217471      -2.70518240       0.00000000
Si       2.71761185       2.70230414      -0.02272748       0.00000000
Si       2.70958088      -2.71690650      -0.05067731       0.00000000
