10
Lattice="16.290000149 0.0 0.0 0.0 16.290000149 0.0 0.0 0.0 29.1751946751" Properties=species:S:1:pos:R:3:initial_magmoms:R:1 pbc="T T T"
Si      -1.36469476      -1.35790183      -1.32925104       0.00000000
Si      -1.43356888       1.33687144       1.28365022       0.00000000
Si       1.34078104       1.34692237      -1.37884888       0.00000000
Si       1.36203949      -1.32675535       1.38016176       0.00000000
Si      -0.08172693       2.67884165       2.59560037       0.00000000
Si      -0.09409104      -2.62562222       2.68274668       0.00000000
Si       0.00876402      -2.71308323      -2.66095281       0.00000000
Si      -2.70488936       0.02609658      -2.67402329       0.00000000
Si       2.71003700       2.69347007      -0.05788359       0.00000000
Si       2.73481409      -0.01482390      -2.67854545       0.00000000
