10
Lattice="16.290000149 0.0 0.0 0.0 16.290000149 0.0 0.0 0.0 29.1751946751" Properties=species:S:1:pos:R:3:initial_magmoms:R:1 pbc="T T T"
Si       1.72431281      -0.75753388      -1.37482270       0.00000000
Si       1.35905842       1.34473951       1.34138793       0.00000000
Si      -1.43734328       1.18640071      -1.44530997       0.00000000
Si      -1.19130074      -1.69432292       1.18836403       0.00000000
Si      -1.66005853      -0.67251637      -2.87226874       0.00000000
Si       0.65006875      -0.84098755      -3.47117714       0.00000000
Si       2.56688048      -2.60493392      -0.25364914       0.00000000
Si      -2.65139138      -0.41423841       2.53421576       0.00000000
Si      -0.08599491       2.53801460       2.69879128       0.00000000
Si       2.63813294      -0.15084540       2.67907819       0.00000000
