10
Lattice="16.290000149 0.0 0.0 0.0 16.290000149 0.0 0.0 0.0 29.1751946751" Properties=species:S:1:pos:R:3:initial_magmoms:R:1 pbc="T T T"
Si      -1.25841880      -1.36875097       1.42561088       0.00000000
Si      -1.45217206       1.41679018      -1.21678067       0.00000000
Si       0.95692348      -1.27104355      -1.75418776       0.00000000
Si       1.38872251       1.37872045       1.34193058       0.00000000
Si       2.35108685       0.16456158      -2.92974387       0.00000000
Si      -2.68539023       0.00690696       2.71934988       0.00000000
Si      -2.06824358      -3.22822191       0.24459987       0.00000000
Si       2.73766484       0.01635516       2.71809826       0.00000000
Si       0.02521692       2.72662022       2.73237952       0.00000000
Si      -0.18766080       2.90020647      -2.54328925       0.00000000
