10
Lattice="16.290000149 0.0 0.0 0.0 16.290000149 0.0 0.0 0.0 29.1751946751" Properties=species:S:1:pos:R:3:initial_magmoms:R:1 pbc="T T T"
Si      -1.34674318      -1.35690814      -1.36154799       0.00000000
Si      -1.37394748       1.36264222       1.33219774       0.00000000
Si       1.34454403      -1.36086661       1.36764560       0.00000000
Si       1.35176050       1.37585341      -1.34582256       0.00000000
Si      -0.01299942       2.72147258       2.67486937       0.00000000
Si      -2.70625772      -2.70154991       0.01105740       0.00000000
Si      -2.69907383       0.01073511      -2.71740681       0.00000000
Si       0.03117906      -2.70550838      -2.71192187       0.00000000
Si       2.77070097       0.04515588      -2.64767809       0.00000000
Si       2.71635752      -2.70555725       0.03016715       0.00000000
