10
Lattice="16.290000149 0.0 0.0 0.0 16.290000149 0.0 0.0 0.0 29.1751946751" Properties=species:S:1:pos:R:3:initial_magmoms:R:1 pbc="T T T"
Si       1.34203537       1.37728693      -1.31492602       0.00000000
Si      -1.36129015       1.37337733       1.34191308       0.00000000
Si       1.54289107      -1.32467023       1.18745960       0.00000000
Si      -1.40892211      -1.32356251      -1.35787191       0.00000000
Si       2.61952976      -2.74263330      -0.31587983       0.00000000
Si       2.57134394       2.80621479       0.11427924       0.00000000
Si       2.64616391       0.03161889      -2.74506489       0.00000000
Si      -0.05924673       2.71920827      -2.67378989       0.00000000
Si      -2.70029558       0.09306477       2.72111206       0.00000000
Si      -2.78270670      -2.64368783       0.00574751       0.00000000
