10
Lattice="16.290000149 0.0 0.0 0.0 16.290000149 0.0 0.0 0.0 29.1751946751" Properties=species:S:1:pos:R:3:initial_magmoms:R:1 pbc="T T T"
Si      -1.37951866       1.34778574       1.32017756       0.00000000
Si      -1.36992385      -1.36203949      -1.32615847       0.00000000
Si       1.35303112       1.39144294      -1.32534157       0.00000000
Si       1.35630541      -1.33221250       1.38380866       0.00000000
Si       0.03964986       2.66031992       2.63536616       0.00000000
Si       0.01609452      -2.67625154      -2.68353441       0.00000000
Si       2.70558983      -2.67952583       0.02112284       0.00000000
Si      -2.72513783       0.00868257      -2.66451218       0.00000000
Si      -2.75265165      -0.01115865       2.64837830       0.00000000
Si       2.69736338       0.06043590      -2.71151342       0.00000000
