10
Lattice="16.290000149 0.0 0.0 0.0 16.290000149 0.0 0.0 0.0 29.1751946751" Properties=species:S:1:pos:R:3:initial_magmoms:R:1 pbc="T T T"
Si      -1.36883242      -1.34842105      -1.33753680       0.00000000
Si      -1.36562329       1.34646625       1.34949863       0.00000000
Si       1.32556618      -1.38271150       1.35988500       0.00000000
Si       1.38493900       1.33195186      -1.36709127       0.00000000
Si       0.07398918      -2.68025888      -2.61955320       0.00000000
Si       2.69634037      -0.01394424       2.68458471       0.00000000
Si      -0.00547344       2.71073747       2.67936235       0.00000000
Si      -2.69496875       2.71401176      -0.02529489       0.00000000
Si       0.05489730       2.74085768      -2.67787442       0.00000000
Si      -2.72266175      -0.03482802       2.70048519       0.00000000
