10
Lattice="16.290000149 0.0 0.0 0.0 16.290000149 0.0 0.0 0.0 29.1751946751" Properties=species:S:1:pos:R:3:initial_magmoms:R:1 pbc="T T T"
Si      -1.25304310       1.10676705      -1.60402303       0.00000000
Si      -1.89587909      -0.01647082       1.33838288       0.00000000
Si       1.57354885       1.68778248       0.44177080       0.00000000
Si       0.43489413      -2.28951880       0.30517254       0.00000000
H        1.83682784       0.58904315      -2.36733365       0.00000000
H       -2.07472700       1.37105601       1.94890300       0.00000000
Si      -1.06218946      -1.26065868       3.05215424       0.00000000
Si       2.04908654      -2.45797369      -1.37114662       0.00000000
Si       0.84323557       2.32108882       2.62157680       0.00000000
Si      -2.58667283       2.65327450      -0.44719738       0.00000000
