10
Lattice="16.290000149 0.0 0.0 0.0 16.290000149 0.0 0.0 0.0 29.1751946751" Properties=species:S:1:pos:R:3:initial_magmoms:R:1 pbc="T T T"
Si       0.81049267      -0.98710885      -1.94408910       0.00000000
Si      -1.33146316      -1.33152832       1.39903811       0.00000000
Si       1.59247783       1.12896217       1.34112535       0.00000000
Si      -1.50358330       1.31132872      -1.29260700       0.00000000
H        1.25393905       0.29651058      -2.61514775       0.00000000
H        0.69102181       1.87159070       2.31834849       0.00000000
Si      -2.53531046       2.79720480       0.17928157       0.00000000
Si      -1.06534972      -1.69109750      -3.22485097       0.00000000
Si      -2.89525431      -2.45581526      -0.06771563       0.00000000
Si      -2.53127054       0.14100624       2.82812667       0.00000000
