10
Lattice="16.290000149 0.0 0.0 0.0 16.290000149 0.0 0.0 0.0 29.1751946751" Properties=species:S:1:pos:R:3:initial_magmoms:R:1 pbc="T T T"
Si       1.13593429      -0.96800068      -0.28752154       0.00000000
Si      -1.90227617       1.64656064      -0.25563306       0.00000000
H       -1.15047637      -1.81454312       1.92953068       0.00000000
Si      -1.53500183       1.39343032       2.10560297       0.00000000
Si      -0.17445434      -2.67732668      -1.42161971       0.00000000
Si       2.42956067      -0.82134181       1.73837480       0.00000000
Si       2.61797081       0.22967271      -1.67605658       0.00000000
Si      -0.20580297       2.67913487      -1.62546680       0.00000000
Si      -1.08179773      -0.74031535       2.99197456       0.00000000
Si      -2.95506630      -0.07157826      -1.62704226       0.00000000
