10
Lattice="16.290000149 0.0 0.0 0.0 16.290000149 0.0 0.0 0.0 29.1751946751" Properties=species:S:1:pos:R:3:initial_magmoms:R:1 pbc="T T T"
Si       1.41187060       1.39044925      -1.25668358       0.00000000
Si       1.36559071      -1.34794864       1.37216776       0.00000000
Si      -1.28144765       1.34500015       1.45636737       0.00000000
Si      -1.39064473      -1.28689372      -1.43477481       0.00000000
Si      -2.69368184      -2.64121175      -0.00102113       0.00000000
Si      -2.59828760       2.78019804       0.18041940       0.00000000
Si       0.13302088       2.76373862      -2.64409538       0.00000000
Si       2.74165590       0.07613946      -2.67630771       0.00000000
Si       2.71725347      -2.71720460       0.01327471       0.00000000
Si       2.71327871       2.71745710       0.16895355       0.00000000
