10
Lattice="16.290000149 0.0 0.0 0.0 16.290000149 0.0 0.0 0.0 29.1751946751" Properties=species:S:1:pos:R:3:initial_magmoms:R:1 pbc="T T T"
Si      -1.34682137      -1.34770429       1.36837498       0.00000000
Si       1.35166276      -1.36925596      -1.35889304       0.00000000
Si      -1.36559071       1.34794864      -1.37216776       0.00000000
Si       1.33071382       1.34565175       1.41464684       0.00000000
Si      -2.64703836       2.69294879       0.08419961       0.00000000
Si       0.04627989       2.73839789      -2.62885134       0.00000000
Si       2.70485678       0.02842605      -2.67918438       0.00000000
Si      -2.71104698      -2.67757103      -0.01073647       0.00000000
Si       2.71811684       2.70488936       0.11051564       0.00000000
Si       0.00417024      -2.70671384       2.72761813       0.00000000
