10
Lattice="16.290000149 0.0 0.0 0.0 16.290000149 0.0 0.0 0.0 29.1751946751" Properties=species:S:1:pos:R:3:initial_magmoms:R:1 pbc="T T T"
Si      -1.34879934      -1.35303112       1.35632563       0.00000000
Si      -1.36795638       1.35451351      -1.34284669       0.00000000
Si       1.33007815      -1.34912152      -1.39127751       0.00000000
Si       1.31449351       1.36596538       1.39437008       0.00000000
Si       0.02986117       2.69153156      -2.67545288       0.00000000
Si       2.68106977      -2.70813107      -0.03203436       0.00000000
Si      -2.69345740       0.01342296       2.70591178       0.00000000
Si       2.68980121       2.71463078       0.04396702       0.00000000
Si      -2.71900012      -2.70130556       0.00105031       0.00000000
Si       2.70183952       0.01687644       2.72537164       0.00000000
