10
Lattice="16.290000149 0.0 0.0 0.0 16.290000149 0.0 0.0 0.0 29.1751946751" Properties=species:S:1:pos:R:3:initial_magmoms:R:1 pbc="T T T"
H        1.28133883       0.03960099       0.82028977       0.00000000
Si      -1.35945916      -1.38313178       1.33812030       0.00000000
Si       0.60240421      -1.51944162      -1.75593827       0.00000000
Si      -0.79522731       2.26093799       0.21440851       0.00000000
Si       0.51882021       1.99565534      -1.69802551       0.00000000
Si       2.72969904       1.91495468      -0.88984344       0.00000000
Si       0.47959389      -2.56041335       2.26848809       0.00000000
H       -3.06121683       1.00245403      -1.50686963       0.00000000
Si       3.59267808      -0.16167825      -0.09759103       0.00000000
Si       2.67079439      -2.24302062      -0.91073288       0.00000000
