10
Lattice="16.290000149 0.0 0.0 0.0 16.290000149 0.0 0.0 0.0 29.1751946751" Properties=species:S:1:pos:R:3:initial_magmoms:R:1 pbc="T T T"
Si       1.38734601      -1.34908894       1.33100156       0.00000000
Si       1.37530770       1.34866540      -1.35040306       0.00000000
Si      -1.31449351      -1.36596538      -1.39437008       0.00000000
Si      -1.36864509       1.34068330       1.37934485       0.00000000
Si      -2.66329285      -2.71899650      -0.03804445       0.00000000
Si       0.02641586      -2.69998607       2.68411791       0.00000000
Si      -2.69996164       2.69879039      -0.00035010       0.00000000
Si       0.02974880       2.70953364      -2.70629106       0.00000000
Si       2.70533734      -2.71067231      -0.06077193       0.00000000
Si      -2.68244989      -0.01145187      -2.73721676       0.00000000
