10
Lattice="16.290000149 0.0 0.0 0.0 16.290000149 0.0 0.0 0.0 29.1751946751" Properties=species:S:1:pos:R:3:initial_magmoms:R:1 pbc="T T T"
Si      -1.28759419      -1.43755635       1.28327094       0.00000000
Si       1.29920896      -1.41693321      -1.33890803       0.00000000
Si      -1.43984053       1.62247131      -0.92718769       0.00000000
Si       1.18856728       1.15004339       1.69294902       0.00000000
Si      -0.80850529       2.02770135       2.67276876       0.00000000
Si      -2.32626089       0.18093173       2.59924727       0.00000000
Si      -0.09125658       2.63890216      -2.56184467       0.00000000
Si       2.62841449       2.56826872       0.34665966       0.00000000
Si       0.23607468      -2.40707200       2.80939620       0.00000000
Si       1.76573828      -0.57449585       3.22132077       0.00000000
