10
Lattice="16.290000149 0.0 0.0 0.0 16.290000149 0.0 0.0 0.0 29.1751946751" Properties=species:S:1:pos:R:3:initial_magmoms:R:1 pbc="T T T"
H        0.95951359       0.90398098       0.88517541       0.00000000
Si      -1.15079077       1.56400291      -1.29108989       0.00000000
Si      -1.17941230      -1.19962819       1.61510960       0.00000000
Si       1.64167364      -1.16458840      -1.18495053       0.00000000
Si       1.88118551       1.87102055       1.79208633       0.00000000
Si      -2.49139262      -2.45638541       0.15176936       0.00000000
Si       0.27044658      -2.46529604      -2.56905094       0.00000000
Si      -2.49523706       0.24105942      -2.64919520       0.00000000
Si       3.00993021      -2.46296657       0.24075371       0.00000000
Si       2.97773058       0.25684443      -2.52027002       0.00000000
