10
Lattice="16.290000149 0.0 0.0 0.0 16.290000149 0.0 0.0 0.0 29.1751946751" Properties=species:S:1:pos:R:3:initial_magmoms:R:1 pbc="T T T"
Si      -1.36093014      -1.35089713       1.35311635       0.00000000
Si      -1.38734601       1.34908894      -1.33100156       0.00000000
Si       1.31799133      -1.36158337      -1.39177349       0.00000000
Si       1.36998901       1.36148563       1.35159924       0.00000000
Si      -0.01203831       2.69775434      -2.68140462       0.00000000
Si       0.01438407      -2.69182478       2.70658281       0.00000000
Si       2.68594409      -2.71860554      -0.06573171       0.00000000
Si       2.68773599      -0.01848915      -2.73415337       0.00000000
Si      -2.70193960       0.01233153       2.72470061       0.00000000
Si      -2.70183952      -0.01687644      -2.72537164       0.00000000
