10
Lattice="16.290000149 0.0 0.0 0.0 16.290000149 0.0 0.0 0.0 29.1751946751" Properties=species:S:1:pos:R:3:initial_magmoms:R:1 pbc="T T T"
Si      -1.66809602       1.68453263       0.23480197       0.00000000
Si       0.36727434      -0.25313031       2.36123603       0.00000000
Si       1.69647320       1.03257424      -1.36983374       0.00000000
Si      -1.05279013      -1.71813890      -1.37140920       0.00000000
H        1.90227617      -1.64656064       0.25563306       0.00000000
H        0.56374804       2.44177328       1.38590927       0.00000000
H       -1.07618257       0.02617803       2.80691630       0.00000000
Si      -2.45814473      -0.36388602      -2.73024389       0.00000000
Si      -3.52782759       0.82688041      -0.99776248       0.00000000
Si       0.60245308       2.70676271      -2.55326716       0.00000000
