10
Lattice="16.290000149 0.0 0.0 0.0 16.290000149 0.0 0.0 0.0 29.1751946751" Properties=species:S:1:pos:R:3:initial_magmoms:R:1 pbc="T T T"
H       -0.06867864      -1.07422777      -1.06244389       0.00000000
Si       2.19731088       0.18425619       0.65883425       0.00000000
Si      -1.61842780      -0.68025412       1.56431559       0.00000000
Si      -0.45320409       2.13374567      -0.88637159       0.00000000
H       -1.89666101       2.41305401      -0.44069132       0.00000000
H        1.08179773       0.74031535      -2.99197456       0.00000000
Si      -3.15410241      -1.40061421      -0.04422960       0.00000000
H       -1.28277235      -3.23968518       0.68838872       0.00000000
Si       2.99253819      -2.07668180       0.44442574       0.00000000
Si       3.51135840      -0.08102646      -1.25359976       0.00000000
