10
Lattice="16.290000149 0.0 0.0 0.0 16.290000149 0.0 0.0 0.0 29.1751946751" Properties=species:S:1:pos:R:3:initial_magmoms:R:1 pbc="T T T"
Si       1.35735449      -1.24199848       1.45674489       0.00000000
Si      -1.17128815       1.59153741       1.28633433       0.00000000
Si       1.31625482       1.42710175      -1.34614348       0.00000000
Si      -1.45855123      -1.38391696      -1.34838997       0.00000000
Si      -0.52279823       2.60438332      -2.27651127       0.00000000
Si       2.80240782      -2.43527357       0.09934154       0.00000000
Si      -1.45615660       3.41796783      -0.28279516       0.00000000
Si       0.00600612      -2.59361237      -2.68735636       0.00000000
Si      -2.64913847       0.28445598       2.65963700       0.00000000
Si       0.01185912      -2.70394454       2.69031472       0.00000000
