10
Lattice="16.290000149 0.0 0.0 0.0 16.290000149 0.0 0.0 0.0 29.1751946751" Properties=species:S:1:pos:R:3:initial_magmoms:R:1 pbc="T T T"
Si       1.35886131      -1.33957558       1.38078903       0.00000000
Si      -1.50643568      -1.38497581      -1.16746613       0.00000000
Si      -1.40050181       1.34933329       1.36903142       0.00000000
Si       1.48735683       1.19972593      -1.43561797       0.00000000
Si      -2.64654021       0.11587077      -2.55092731       0.00000000
Si      -0.24312662      -2.81215902      -2.49423991       0.00000000
Si       2.66088845       2.66727575       0.01469846       0.00000000
Si       0.13146193       2.60799644      -2.74978544       0.00000000
Si      -0.01520346      -2.70052364       2.74267836       0.00000000
Si       2.67906809       0.00141723       2.77506283       0.00000000
