10
Lattice="16.290000149 0.0 0.0 0.0 16.290000149 0.0 0.0 0.0 29.1751946751" Properties=species:S:1:pos:R:3:initial_magmoms:R:1 pbc="T T T"
Si      -0.93019159      -0.92699875      -0.72004380       0.00000000
H        1.34415307       0.88526377       0.66563207       0.00000000
H        0.73702477      -0.54809334       1.82814687       0.00000000
Si       1.98579989       1.73586242      -0.39864986       0.00000000
Si      -1.18698715       2.74758546       0.05870049       0.00000000
Si       0.43829874      -2.37123758      -1.90484846       0.00000000
Si      -0.90233569       1.87683608       2.30565728       0.00000000
Si      -2.23866956       0.37123281      -2.13025601       0.00000000
Si      -2.75978667      -1.73809415       0.46735744       0.00000000
Si       0.41718690       2.82706437      -1.73078925       0.00000000
