10
Lattice="16.290000149 0.0 0.0 0.0 16.290000149 0.0 0.0 0.0 29.1751946751" Properties=species:S:1:pos:R:3:initial_magmoms:R:1 pbc="T T T"
Si      -1.35327547      -1.35422029       1.33496938       0.00000000
Si      -1.37345878       1.34831517      -1.33569876       0.00000000
Si       1.30653946       1.31033829       1.44778986       0.00000000
Si       1.35347095      -1.38197845      -1.33899556       0.00000000
Si       2.66957264       2.65810448       0.05484937       0.00000000
Si       0.04215852      -2.80225470       2.53211515       0.00000000
Si      -0.01057221       2.69335604      -2.68986542       0.00000000
Si       2.71373483      -0.02296890      -2.68429296       0.00000000
Si      -2.72329706      -0.02133990      -2.68691873       0.00000000
Si      -2.72403011       2.69742854       0.03725672       0.00000000
