10
Lattice="16.290000149 0.0 0.0 0.0 16.290000149 0.0 0.0 0.0 29.1751946751" Properties=species:S:1:pos:R:3:initial_magmoms:R:1 pbc="T T T"
Si      -1.61419240       0.16845489       1.67631916       0.00000000
Si       0.83219095       1.93186044      -1.01716399       0.00000000
Si       1.76783969      -1.16141185       1.02609160       0.00000000
Si      -1.56752155      -0.77509450      -1.58750987       0.00000000
H       -0.21225870       3.04701683      -0.99618702       0.00000000
Si      -2.04908654       2.45797369       1.37114662       0.00000000
Si       1.11518083       1.20692611      -3.22350891       0.00000000
Si       0.61600636      -2.80144020       2.20614070       0.00000000
Si      -2.48005478      -2.61907364      -0.42759165       0.00000000
Si      -0.41448276      -0.62565004      -3.63543348       0.00000000
