10
Lattice="16.290000149 0.0 0.0 0.0 16.290000149 0.0 0.0 0.0 29.1751946751" Properties=species:S:1:pos:R:3:initial_magmoms:R:1 pbc="T T T"
Si       1.34596126      -1.34563546       1.36478643       0.00000000
Si      -1.35443206       1.32898708       1.40040934       0.00000000
Si      -1.42229620      -1.45963288      -1.22463755       0.00000000
Si       1.46025190       1.43720269      -1.21442915       0.00000000
Si      -0.99632899       0.92651005      -3.42112126       0.00000000
Si       0.04338027       2.78026320      -2.46910548       0.00000000
Si      -2.82854676      -0.09570375      -2.47883541       0.00000000
Si       2.68991885      -2.64821645      -0.05861297       0.00000000
Si      -0.08428446      -2.61379568      -2.78128006       0.00000000
Si      -0.00951336      -2.71529867       2.71163012       0.00000000
