10
Lattice="16.290000149 0.0 0.0 0.0 16.290000149 0.0 0.0 0.0 29.1751946751" Properties=species:S:1:pos:R:3:initial_magmoms:R:1 pbc="T T T"
Si      -1.36948402       1.34801380      -1.34019174       0.00000000
Si      -1.37515294      -1.34192134       1.34112535       0.00000000
Si       1.35550720      -1.35369901      -1.36446550       0.00000000
Si       1.35689185       1.36308205       1.35749263       0.00000000
Si       0.01058850       2.69058674      -2.67568628       0.00000000
Si      -0.01423746      -2.73689921       2.64470222       0.00000000
Si       2.71831232      -2.69324201      -0.00081691       0.00000000
Si      -2.72644103       0.02611287       2.69418335       0.00000000
Si       2.71098182       0.01596420      -2.71130919       0.00000000
Si      -2.72909630      -2.69612534      -0.01887635       0.00000000
