10
Lattice="16.290000149 0.0 0.0 0.0 16.290000149 0.0 0.0 0.0 29.1751946751" Properties=species:S:1:pos:R:3:initial_magmoms:R:1 pbc="T T T"
Si      -1.34801380      -1.36132273      -1.35002378       0.00000000
Si       1.34019460      -1.38399841       1.34477225       0.00000000
Si      -1.38663739       1.35109261       1.33356897       0.00000000
Si       1.34343631       1.34750881      -1.38202897       0.00000000
Si       2.70488936      -0.02609658       2.67402329       0.00000000
Si      -0.03590316       2.73807210       2.65651818       0.00000000
Si      -2.69122531      -0.00311139      -2.71279713       0.00000000
Si       2.70438437       2.70633917      -0.03935734       0.00000000
Si       0.01112607      -2.71668332      -2.70316931       0.00000000
Si      -0.03450222      -2.71896392       2.70731219       0.00000000
