10
Lattice="16.290000149 0.0 0.0 0.0 16.290000149 0.0 0.0 0.0 29.1751946751" Properties=species:S:1:pos:R:3:initial_magmoms:R:1 pbc="T T T"
Si       1.36026388       1.35900955      -1.34529740       0.00000000
Si      -1.35347095       1.38197845       1.33899556       0.00000000
Si       1.38696319      -1.34159554       1.34655194       0.00000000
Si      -1.35689185      -1.36308205      -1.35749263       0.00000000
Si      -2.70674642       0.02775816       2.67396494       0.00000000
Si       0.04803921      -2.78744709       2.60239819       0.00000000
Si       2.69495246       2.70973727       0.03466013       0.00000000
Si       0.00074934       2.71484907      -2.69494191       0.00000000
Si       2.71246421      -0.00050499      -2.70220653       0.00000000
Si      -2.72637587      -0.01506825      -2.69768438       0.00000000
