10
Lattice="16.290000149 0.0 0.0 0.0 16.290000149 0.0 0.0 0.0 29.1751946751" Properties=species:S:1:pos:R:3:initial_magmoms:R:1 pbc="T T T"
Si      -1.36399103       1.23585715      -1.45038645       0.00000000
Si       1.19638648      -1.40385592      -1.47839464       0.00000000
Si      -1.37593975      -1.42276861       1.29505772       0.00000000
Si       1.43874910       1.40802616       1.31387572       0.00000000
Si      -0.05727564       2.74647774       2.56718373       0.00000000
Si       0.05952366      -2.64129320       2.67527783       0.00000000
Si       2.55187739      -2.76332160      -0.17662663       0.00000000
Si      -2.71973786       2.61684191      -0.15407420       0.00000000
Si       2.73781146       2.64357380      -0.18952206       0.00000000
Si      -0.03719007       2.63433737      -2.79670499       0.00000000
