10
Lattice="16.290000149 0.0 0.0 0.0 16.290000149 0.0 0.0 0.0 29.1751946751" Properties=species:S:1:pos:R:3:initial_magmoms:R:1 pbc="T T T"
Si       0.97062337      -1.45627714      -1.51031230       0.00000000
Si      -1.68839336       0.93012643      -1.31075397       0.00000000
Si      -1.26451126      -1.48341628       1.32650858       0.00000000
Si       1.50337153       1.28555794       1.28545908       0.00000000
H       -1.15517278       1.18623781      -2.69736345       0.00000000
Si      -0.92828566      -2.95498974      -1.83051006       0.00000000
Si      -2.64290591      -2.51186915      -0.30496831       0.00000000
Si      -2.57165345      -0.05778063       2.62775902       0.00000000
H        0.11394855       2.94827826      -2.26729190       0.00000000
Si       0.16246017       2.64176561       2.62875944       0.00000000
