10
Lattice="16.290000149 0.0 0.0 0.0 16.290000149 0.0 0.0 0.0 29.1751946751" Properties=species:S:1:pos:R:3:initial_magmoms:R:1 pbc="T T T"
Si      -0.98191234       1.85925917      -0.89279013       0.00000000
Si      -1.76508668      -1.48484980       0.33040908       0.00000000
Si       0.38309193       0.64488853       2.22320818       0.00000000
Si       1.75591541      -0.97824709      -1.25715914       0.00000000
H       -0.39749229      -1.23512410      -2.57263949       0.00000000
Si       1.87005944      -1.22430754       2.57392320       0.00000000
Si       2.49458546      -2.30127203       0.53066762       0.00000000
Si      -2.46560555       0.84401749      -2.36567066       0.00000000
Si      -1.07849575      -3.53495935      -0.43541061       0.00000000
Si      -3.58538016      -0.59756608      -0.81544669       0.00000000
