10
Lattice="16.290000149 0.0 0.0 0.0 16.290000149 0.0 0.0 0.0 29.1751946751" Properties=species:S:1:pos:R:3:initial_magmoms:R:1 pbc="T T T"
Si       1.45963451       1.17858151      -1.41649655       0.00000000
Si      -1.39527109      -1.32157513      -1.36506068       0.00000000
Si      -1.33053463       1.44016633       1.31401576       0.00000000
Si       1.38776140      -1.36016614       1.35646858       0.00000000
Si       0.14172300      -2.59362866      -2.56349015       0.00000000
Si       0.05729193       2.34888770      -2.87700679       0.00000000
H       -0.84416410       3.09151623      -1.89978365       0.00000000
Si      -2.67195098       0.02220327       2.67424502       0.00000000
Si       2.67953561       2.66888846      -0.01835120       0.00000000
Si      -2.61239474      -2.75587707       0.07738720       0.00000000
