10
Lattice="16.290000149 0.0 0.0 0.0 16.290000149 0.0 0.0 0.0 29.1751946751" Properties=species:S:1:pos:R:3:initial_magmoms:R:1 pbc="T T T"
Si       1.36404316       1.36119241      -1.32928022       0.00000000
Si      -1.34978941       1.36441783       1.35679243       0.00000000
Si       1.38422647      -1.33815835       1.34856502       0.00000000
Si      -1.33434649      -1.35187453      -1.39387410       0.00000000
Si       2.70029558      -0.08034228      -2.61791939       0.00000000
Si       0.01541034      -2.69891093       2.68484729       0.00000000
Si      -0.02055798       2.71793765      -2.66853836       0.00000000
Si      -2.69187365      -2.69524568      -0.02027676       0.00000000
Si      -2.71953407       0.02132361       2.69917231       0.00000000
Si       0.01664838       2.72635958       2.70932528       0.00000000
