10
Lattice="16.290000149 0.0 0.0 0.0 16.290000149 0.0 0.0 0.0 29.1751946751" Properties=species:S:1:pos:R:3:initial_magmoms:R:1 pbc="T T T"
Si      -1.33468858      -1.35072772      -1.37995753       0.00000000
Si      -1.37885077       1.33034567       1.35918479       0.00000000
Si       1.33131655      -1.35810709       1.37969496       0.00000000
Si       1.35006634       1.35952106      -1.36598261       0.00000000
Si       0.00283446       2.70414654       2.65716003       0.00000000
Si       2.69996164      -2.69879039       0.00035010       0.00000000
Si      -2.69495246      -2.70973727      -0.03466013       0.00000000
Si      -2.69816159       2.70740454      -0.02538242       0.00000000
Si       2.70189689       0.01304829       2.71075486       0.00000000
Si      -2.69420312       0.00511180      -2.72960204       0.00000000
