10
Lattice="16.290000149 0.0 0.0 0.0 16.290000149 0.0 0.0 0.0 29.1751946751" Properties=species:S:1:pos:R:3:initial_magmoms:R:1 pbc="T T T"
Si      -1.36881613      -1.36075258       1.33628227       0.00000000
Si       1.35394336       1.35420400       1.36000170       0.00000000
Si       1.36923967      -1.37987704      -1.32111117       0.00000000
Si      -1.38422647       1.33815835      -1.34856502       0.00000000
Si      -0.02018331       2.69935076      -2.67784524       0.00000000
Si       2.71485884      -0.04077387       2.66357857       0.00000000
Si      -0.00405621      -2.70637175      -2.68440966       0.00000000
Si      -2.73580779       0.00245979       2.67664906       0.00000000
Si      -0.02753010      -2.74626597       2.67081402       0.00000000
Si       2.72909630       2.69612534       0.01887635       0.00000000
