10
Lattice="16.290000149 0.0 0.0 0.0 16.290000149 0.0 0.0 0.0 29.1751946751" Properties=species:S:1:pos:R:3:initial_magmoms:R:1 pbc="T T T"
Si      -1.34594497      -1.33011924       1.34696331       0.00000000
Si       1.31548267      -1.32301843      -1.40077112       0.00000000
Si      -1.20288619       1.39719331      -1.44133631       0.00000000
Si       1.42842124       1.40396995       1.24231188       0.00000000
Si       2.30418794       0.46426500      -2.55331968       0.00000000
Si       0.67106656       2.19962243      -2.63717706       0.00000000
Si      -2.64735308      -2.65712708      -0.07867383       0.00000000
Si      -2.70200603       0.06498081       2.63609846       0.00000000
Si       2.69821046      -2.64735807      -0.03495480       0.00000000
Si       0.05049900       2.75257020       2.59268577       0.00000000
