10
Lattice="16.290000149 0.0 0.0 0.0 16.290000149 0.0 0.0 0.0 29.1751946751" Properties=species:S:1:pos:R:3:initial_magmoms:R:1 pbc="T T T"
H        0.53322057       0.25611138      -1.38660948       0.00000000
Si       1.68839336      -0.93012643       1.31075397       0.00000000
Si      -0.85154347       1.87418081       1.11428821       0.00000000
Si      -1.79708024      -1.59459553      -0.11538789       0.00000000
H        1.80234191       2.01815183      -0.95653793       0.00000000
H       -1.06432345       1.10506474      -2.55215850       0.00000000
H       -0.14486697      -0.66808549      -3.00641629       0.00000000
Si      -2.16233462       0.50767785       2.60082273       0.00000000
Si       2.65901672      -2.38640357      -0.19955833       0.00000000
Si       0.42388209      -2.41354271       2.63726255       0.00000000
