10
Lattice="16.290000149 0.0 0.0 0.0 16.290000149 0.0 0.0 0.0 29.1751946751" Properties=species:S:1:pos:R:3:initial_magmoms:R:1 pbc="T T T"
H       -0.66277495       0.40547439      -0.02704541       0.00000000
Si       1.97508107       0.62115400       1.08047416       0.00000000
H       -1.81120367      -1.21357243       1.09643299       0.00000000
Si       0.73910989      -0.54688789      -2.48963606       0.00000000
Si       0.19728819       2.16443603       1.72337875       0.00000000
Si      -2.52773561      -1.29225313      -0.23109672       0.00000000
Si      -0.91865827      -2.07769178      -1.75520889       0.00000000
Si       2.59884146       0.31076433      -1.25707161       0.00000000
Si       1.21832911      -1.25059960       2.36855900       0.00000000
Si      -0.74371996       1.25204941      -2.60633684       0.00000000
