10
Lattice="16.290000149 0.0 0.0 0.0 16.290000149 0.0 0.0 0.0 29.1751946751" Properties=species:S:1:pos:R:3:initial_magmoms:R:1 pbc="T T T"
Si       1.34879934       1.35303112      -1.35632563       0.00000000
Si      -1.34465806       1.36645408       1.34958616       0.00000000
Si       1.34447887      -1.35876520       1.36621602       0.00000000
Si      -1.37020078      -1.34827444      -1.35527532       0.00000000
Si      -2.68358204      -0.07939746       2.60543241       0.00000000
Si       2.67270358      -2.70842429      -0.02684118       0.00000000
Si       2.66329285       2.71899650       0.03804445       0.00000000
Si      -0.01915704       2.70754463      -2.69917231       0.00000000
Si       2.68970871       0.01901043       2.72216236       0.00000000
Si      -0.02586852      -2.67928148      -2.74144717       0.00000000
