10
Lattice="16.290000149 0.0 0.0 0.0 16.290000149 0.0 0.0 0.0 29.1751946751" Properties=species:S:1:pos:R:3:initial_magmoms:R:1 pbc="T T T"
H       -1.18164403      -0.53810757      -1.05144484       0.00000000
Si      -1.53699409       1.27205353       1.19842947       0.00000000
Si       1.14010453      -1.50084658       1.38346118       0.00000000
Si       1.66965497       0.78376078      -1.44694378       0.00000000
Si      -2.47759499      -1.08763444      -1.97378945       0.00000000
Si       3.08377848      -1.16566354      -1.45120336       0.00000000
Si      -0.14172300       2.59362866       2.56349015       0.00000000
Si       2.64654021      -0.11587077       2.55092731       0.00000000
Si       2.77800214       2.49212567      -0.19885813       0.00000000
Si       2.40341359      -2.92802979       0.05668740       0.00000000
