10
Lattice="16.290000149 0.0 0.0 0.0 16.290000149 0.0 0.0 0.0 29.1751946751" Properties=species:S:1:pos:R:3:initial_magmoms:R:1 pbc="T T T"
Si       0.64164682       0.85059865      -1.06428193       0.00000000
H       -1.34415307      -0.88526377      -0.66563207       0.00000000
H       -0.60712831      -1.43335711       1.16251481       0.00000000
Si       0.53638083      -2.02939193       1.96611637       0.00000000
Si      -2.24648876       0.99157231       1.64002522       0.00000000
Si       1.92228518       2.32466447       0.21440851       0.00000000
Si       1.87258439      -0.49748031      -2.50083934       0.00000000
Si      -2.53114022       1.86232169      -0.60693157       0.00000000
Si      -0.92696617       1.94180060      -2.39642132       0.00000000
Si      -2.27434466      -1.81226252      -1.38567587       0.00000000
