10
Lattice="16.290000149 0.0 0.0 0.0 16.290000149 0.0 0.0 0.0 29.1751946751" Properties=species:S:1:pos:R:3:initial_magmoms:R:1 pbc="T T T"
Si       1.05669973      -1.46357506      -1.48198319       0.00000000
Si      -1.31564557      -1.35754345       1.38354608       0.00000000
Si      -1.44534655       1.35402481      -1.28251238       0.00000000
Si       1.81224623       0.75373831       1.38730968       0.00000000
Si       2.15050808      -1.19689147       2.76009012       0.00000000
Si       0.27914544      -2.66051540       2.59720501       0.00000000
Si       2.43564824      -0.13934466      -2.83366996       0.00000000
Si      -2.67805973       0.12398319       2.61826950       0.00000000
Si       2.27589221      -2.99757180      -0.23690258       0.00000000
Si      -0.14628420       2.58957245      -2.78591016       0.00000000
