10
Lattice="16.290000149 0.0 0.0 0.0 16.290000149 0.0 0.0 0.0 29.1751946751" Properties=species:S:1:pos:R:3:initial_magmoms:R:1 pbc="T T T"
Si       0.98191234      -1.85925917       0.89279013       0.00000000
Si      -1.48369321      -1.01524168      -1.47288053       0.00000000
Si      -1.60907734       0.78543865       1.52411217       0.00000000
Si       1.65776816       1.53080389      -0.73442718       0.00000000
H        0.91865827       2.07769178       1.75520889       0.00000000
H        0.25588332       2.48316617       1.72816348       0.00000000
H       -0.89254540       0.86411935       2.85164188       0.00000000
Si      -1.94733920       2.73606842       0.15133173       0.00000000
Si       0.17493831       3.32974119      -0.85112795       0.00000000
H        0.58442005      -3.09438327      -1.67984936       0.00000000
