10
Lattice="16.290000149 0.0 0.0 0.0 16.290000149 0.0 0.0 0.0 29.1751946751" Properties=species:S:1:pos:R:3:initial_magmoms:R:1 pbc="T T T"
Si       1.38168523       1.37380087       1.29797524       0.00000000
Si       1.37885077      -1.33034567      -1.35918479       0.00000000
Si      -1.31931082       1.37705887      -1.38456721       0.00000000
Si      -1.36303318      -1.34776619       1.39294049       0.00000000
Si      -2.66957264      -2.65810448      -0.05484937       0.00000000
Si       2.68475492       0.01878237       2.69990169       0.00000000
Si       0.04872339       2.73165383       2.65675158       0.00000000
Si       2.71016732      -2.68845275       0.02051016       0.00000000
Si      -2.68403816       2.72450252      -0.03477683       0.00000000
Si       0.04416219      -2.68107338      -2.73914233       0.00000000
