10
Lattice="16.290000149 0.0 0.0 0.0 16.290000149 0.0 0.0 0.0 29.1751946751" Properties=species:S:1:pos:R:3:initial_magmoms:R:1 pbc="T T T"
Si      -1.22924341       1.85196125       0.66612804       0.00000000
Si      -1.53567460      -0.72036010      -1.60854518       0.00000000
Si       1.61842780       0.68025412      -1.56431559       0.00000000
Si       0.07237647      -1.46069173       1.93317757       0.00000000
H        0.33565545      -2.55943107      -0.87592687       0.00000000
H        0.06670755       2.40148811       1.58847265       0.00000000
H        1.54974916      -0.39397365      -2.62675948       0.00000000
Si      -2.75421549      -2.04170717      -0.11261625       0.00000000
H       -0.27823320       3.09330813      -2.00500690       0.00000000
Si       2.31814847      -1.96597496       2.21194656       0.00000000
