10
Lattice="16.290000149 0.0 0.0 0.0 16.290000149 0.0 0.0 0.0 29.1751946751" Properties=species:S:1:pos:R:3:initial_magmoms:R:1 pbc="T T T"
H        1.19433394       0.36287604       0.89515332       0.00000000
Si       0.87544090       1.48916665      -1.61580981       0.00000000
Si      -0.77352903      -2.11584296       1.17167582       0.00000000
Si       0.54051849      -2.38112561      -0.74075819       0.00000000
Si      -2.19612008       1.41729517       1.03916208       0.00000000
H        2.59967225      -1.66560365       1.34322596       0.00000000
Si      -3.42404400      -0.16635348      -0.37353002       0.00000000
H       -1.88904217      -1.55978380      -2.47913299       0.00000000
Si      -0.25713765      -1.20642112       3.26587129       0.00000000
Si       1.27845550       3.30470346      -0.14132464       0.00000000
