10
Lattice="16.290000149 0.0 0.0 0.0 16.290000149 0.0 0.0 0.0 29.1751946751" Properties=species:S:1:pos:R:3:initial_magmoms:R:1 pbc="T T T"
Si      -1.42625467       1.32379057       1.30932439       0.00000000
Si       1.33558453       1.31487994      -1.41149592       0.00000000
Si      -1.39953907      -1.36969579      -1.31148335       0.00000000
Si       1.35202114      -1.30882006       1.42841753       0.00000000
Si       2.70681158       2.61558758      -0.02739551       0.00000000
Si       2.58652622      -2.73597720       0.01137833       0.00000000
Si      -0.11427435       2.58054779       2.77266463       0.00000000
Si      -2.91617067      -0.02541240       2.47889959       0.00000000
Si       0.00343719      -2.32525091       3.06307451       0.00000000
Si       2.66854637      -0.04297302      -2.77027226       0.00000000
