10
Lattice="16.290000149 0.0 0.0 0.0 16.290000149 0.0 0.0 0.0 29.1751946751" Properties=species:S:1:pos:R:3:initial_magmoms:R:1 pbc="T T T"
Si      -1.34596126       1.34563546      -1.36478643       0.00000000
Si       1.35837424       1.34661286       1.36659529       0.00000000
Si      -1.35547462      -1.36966321       1.34684369       0.00000000
Si       1.34395759      -1.30258099      -1.42339940       0.00000000
Si      -2.76825747      -0.11399742      -2.58942398       0.00000000
Si       0.11429064       2.78283816      -2.57921558       0.00000000
Si      -2.70039332       2.67462254       0.03562291       0.00000000
Si       2.69218316      -2.68688891      -0.06094698       0.00000000
Si       0.00733050      -2.70920621       2.71049229       0.00000000
Si      -2.71098182      -0.01596420       2.71130919       0.00000000
