10
Lattice="16.290000149 0.0 0.0 0.0 16.290000149 0.0 0.0 0.0 29.1751946751" Properties=species:S:1:pos:R:3:initial_magmoms:R:1 pbc="T T T"
H        1.35624025       0.57603070       0.27719352       0.00000000
Si      -0.46087668       0.42427305      -2.21203409       0.00000000
Si      -1.36215352       1.34952877       1.32475806       0.00000000
Si      -0.45076059      -2.20708325       0.61760970       0.00000000
H        2.27569673      -1.19711953      -0.17706426       0.00000000
H        2.95378428      -0.27292266       1.44274255       0.00000000
Si       0.62348347      -2.12362958       2.71396413       0.00000000
Si       1.36795276       1.71554879      -2.84916199       0.00000000
Si      -2.76088787      -2.03861207       1.21651809       0.00000000
Si       0.17993934       2.66049911       2.51423075       0.00000000
