10
Lattice="16.290000149 0.0 0.0 0.0 16.290000149 0.0 0.0 0.0 29.1751946751" Properties=species:S:1:pos:R:3:initial_magmoms:R:1 pbc="T T T"
Si       1.37679823       1.35532801      -1.33231444       0.00000000
Si       1.37023336      -1.34227972       1.35229945       0.00000000
Si      -1.32048370       1.36795276       1.38360443       0.00000000
Si      -1.36643779      -1.36194175      -1.35253285       0.00000000
Si      -0.02019960      -2.70057251       2.66427878       0.00000000
Si      -0.00547344       2.71473178      -2.65450509       0.00000000
Si       2.72719037      -0.02037879      -2.68207565       0.00000000
Si      -2.68418477       0.01803303       2.73321976       0.00000000
Si      -2.70958088       2.71690650       0.05067731       0.00000000
Si       2.72152145      -2.71031393      -0.00075856       0.00000000
