10
Lattice="16.290000149 0.0 0.0 0.0 16.290000149 0.0 0.0 0.0 29.1751946751" Properties=species:S:1:pos:R:3:initial_magmoms:R:1 pbc="T T T"
Si       1.34549537       1.46194606      -1.23356983       0.00000000
Si       1.38543845      -1.33981993       1.37195186       0.00000000
Si      -1.36024108       1.45834597       1.28725919       0.00000000
Si      -1.21990110      -1.49030695      -1.39814535       0.00000000
Si      -2.67953561      -2.66888846       0.01835120       0.00000000
Si      -2.66327819       0.10402794       2.72101286       0.00000000
Si      -0.01185912       2.70394454      -2.69031472       0.00000000
Si       2.79054870       0.26867097      -2.59097318       0.00000000
Si       0.03910577      -2.66862782       2.75298887       0.00000000
Si       0.03040366       2.74523970       2.72203399       0.00000000
