10
Lattice="16.290000149 0.0 0.0 0.0 16.290000149 0.0 0.0 0.0 29.1751946751" Properties=species:S:1:pos:R:3:initial_magmoms:R:1 pbc="T T T"
Si      -1.46455735       1.20969541       1.33896638       0.00000000
Si       1.17601909       1.52922376      -1.31871880       0.00000000
Si      -0.22271525      -1.85891708      -1.42695877       0.00000000
Si       1.43734328      -1.18640071       1.44530997       0.00000000
H       -2.95492946      -1.26278452      -1.43725762       0.00000000
Si       2.08741202      -2.02738826      -2.02586717       0.00000000
Si      -2.61639068      -0.43033293       2.51901548       0.00000000
Si       2.53817262       0.17969499      -2.64347686       0.00000000
Si       3.16165608      -1.94393459       0.07048727       0.00000000
Si      -0.00600612       2.59361237       2.68735636       0.00000000
