10
Lattice="16.290000149 0.0 0.0 0.0 16.290000149 0.0 0.0 0.0 29.1751946751" Properties=species:S:1:pos:R:3:initial_magmoms:R:1 pbc="T T T"
Si      -1.35624025      -0.57603070      -0.27719352       0.00000000
H        0.91945648      -1.77315023      -0.45425778       0.00000000
H        1.59754402      -0.84895336       1.16554903       0.00000000
Si       1.06432345      -1.10506474       2.55215850       0.00000000
Si      -2.71839377       0.77349808       1.04756454       0.00000000
Si      -1.81711694      -0.15175764      -2.48922761       0.00000000
Si       2.05294727      -1.83347210      -1.45595892       0.00000000
Si      -1.17630091       2.08446842       2.23703723       0.00000000
Si       0.01171251       1.13951809      -3.12635551       0.00000000
Si      -1.80700085      -2.78311395       0.34041617       0.00000000
