10
Lattice="16.290000149 0.0 0.0 0.0 16.290000149 0.0 0.0 0.0 29.1751946751" Properties=species:S:1:pos:R:3:initial_magmoms:R:1 pbc="T T T"
Si       1.34555890      -1.36086824       1.35588800       0.00000000
Si      -1.31438114      -1.38396746      -1.36353190       0.00000000
Si      -1.37964410       1.34877780       1.33995834       0.00000000
Si       1.32428416       1.38358953      -1.36181056       0.00000000
Si      -2.63122110       0.05123042      -2.63947986       0.00000000
Si       2.68034522      -0.01151051      -2.65094571       0.00000000
Si      -0.00886991       2.71754507       2.66465806       0.00000000
Si       2.66337104      -2.73126450      -0.03308467       0.00000000
Si       2.70219011       0.00173651       2.70634941       0.00000000
Si      -0.02974880      -2.70953364       2.70629106       0.00000000
