10
Lattice="16.290000149 0.0 0.0 0.0 16.290000149 0.0 0.0 0.0 29.1751946751" Properties=species:S:1:pos:R:3:initial_magmoms:R:1 pbc="T T T"
Si      -1.31213635      -1.33653245       1.36700375       0.00000000
Si      -1.46809681       1.29214578      -1.27297209       0.00000000
Si       1.23247571       1.36272546       1.44428884       0.00000000
Si       1.37921929      -1.39382438      -1.29873379       0.00000000
Si       2.61769587      -0.08132278       2.60245654       0.00000000
Si      -0.08300697       2.63013146      -2.65269623       0.00000000
Si       2.64524226       2.65523435       0.05689163       0.00000000
Si      -2.61134531       0.08040076       2.70591178       0.00000000
Si       2.71652730      -0.04455625      -2.66877176       0.00000000
Si      -2.86779878      -0.12734203      -2.52753464       0.00000000
