10
Lattice="16.290000149 0.0 0.0 0.0 16.290000149 0.0 0.0 0.0 29.1751946751" Properties=species:S:1:pos:R:3:initial_magmoms:R:1 pbc="T T T"
Si       1.31678587      -1.44334288       1.27448920       0.00000000
Si      -1.34803009      -1.36148563      -1.34838997       0.00000000
Si       1.39043296       1.35829279      -1.31197933       0.00000000
Si      -1.28806660       1.36783873       1.41248788       0.00000000
Si       2.74038528      -0.05123205       2.45447995       0.00000000
Si       0.02019960       2.70057251      -2.66427878       0.00000000
Si      -2.66398517       2.71860554       0.06894099       0.00000000
Si      -2.71598285      -0.00446346      -2.67443175       0.00000000
Si      -0.06226038      -2.77829211       2.62022423       0.00000000
Si       2.74172106      -0.00974142      -2.66503733       0.00000000
