10
Lattice="16.290000149 0.0 0.0 0.0 16.290000149 0.0 0.0 0.0 29.1751946751" Properties=species:S:1:pos:R:3:initial_magmoms:R:1 pbc="T T T"
Si       0.90145603      -0.74262853      -0.97722315       0.00000000
Si      -1.07960347       1.71359399       0.78998696       0.00000000
Si      -1.91378180      -0.28417905       1.87977822       0.00000000
Si      -1.32874273       2.22726656      -1.50704468       0.00000000
Si       2.30379861      -1.91293472       0.48328710       0.00000000
Si      -0.69102181      -1.87159070      -2.31834849       0.00000000
Si       2.05328936       0.89739982      -2.15727224       0.00000000
Si       0.86270212       2.56577276       1.85075473       0.00000000
Si      -0.48637053      -1.65134990       3.21379940       0.00000000
Si      -3.22229235      -1.73058446       0.50977818       0.00000000
