10
Lattice="16.290000149 0.0 0.0 0.0 16.290000149 0.0 0.0 0.0 29.1751946751" Properties=species:S:1:pos:R:3:initial_magmoms:R:1 pbc="T T T"
Si      -1.33984925       1.35873262      -1.36271499       0.00000000
Si       1.35073423       1.38697948       1.32294920       0.00000000
Si       1.38663739      -1.35109261      -1.33356897       0.00000000
Si      -1.35021621      -1.36383139       1.36496148       0.00000000
Si       2.65795787      -0.04031775       2.62410453       0.00000000
Si      -2.66807396       2.70839171       0.03034220       0.00000000
Si       0.03862359      -2.71241534      -2.68359276       0.00000000
Si      -2.69252525       0.00676035      -2.72367947       0.00000000
Si      -2.69394248      -2.72635958       0.00974451       0.00000000
Si       0.01731627       2.71205696      -2.72423380       0.00000000
