10
Lattice="16.290000149 0.0 0.0 0.0 16.290000149 0.0 0.0 0.0 29.1751946751" Properties=species:S:1:pos:R:3:initial_magmoms:R:1 pbc="T T T"
Si       1.32784841      -1.36047565       1.37339311       0.00000000
Si      -1.36990593      -1.36979353      -1.32397033       0.00000000
Si      -1.36329219       1.35169534       1.35142419       0.00000000
Si       1.36875260       1.36487395      -1.34308009       0.00000000
Si      -2.69509745       0.01309716      -2.68405956       0.00000000
Si       0.01008677      -2.71824716      -2.66448300       0.00000000
Si       2.68171032       0.00874773       2.70906270       0.00000000
Si      -0.01899577       2.71204067       2.70512405       0.00000000
Si       2.72732232       0.00879660      -2.69683829       0.00000000
Si      -2.70013106       2.72653878      -0.00207144       0.00000000
