10
Lattice="16.290000149 0.0 0.0 0.0 16.290000149 0.0 0.0 0.0 29.1751946751" Properties=species:S:1:pos:R:3:initial_magmoms:R:1 pbc="T T T"
Si      -0.43960194       0.24786864      -2.28303163       0.00000000
Si       0.80935237       1.85912885       1.18173280       0.00000000
Si      -1.87501160      -0.80130511       1.19501043       0.00000000
Si       1.63294219      -1.73584613       0.08241438       0.00000000
Si       2.18505917       0.59528548       2.59823518       0.00000000
Si      -0.67204396      -2.19770021       2.63716364       0.00000000
Si      -2.15896259       1.87735736      -2.17826351       0.00000000
Si      -0.49057335      -2.04718061      -2.94624216       0.00000000
Si       1.71735698      -2.42859467      -2.14765873       0.00000000
Si       0.64265680      -3.52111937       1.23642754       0.00000000
