10
Lattice="16.290000149 0.0 0.0 0.0 16.290000149 0.0 0.0 0.0 29.1751946751" Properties=species:S:1:pos:R:3:initial_magmoms:R:1 pbc="T T T"
Si      -1.49814244      -1.38693061       1.13544023       0.00000000
Si       1.34602642       1.29296989       1.41867302       0.00000000
Si       1.39854538      -1.34275213      -1.31854375       0.00000000
Si      -1.33498180       1.35506737      -1.38681370       0.00000000
H       -0.85108735      -2.42820371       2.00713669       0.00000000
H        0.11236842       0.34759602       3.72339669       0.00000000
Si      -0.00221544      -2.71189406      -2.63425750       0.00000000
Si       2.69664662       2.68229513       0.06412708       0.00000000
Si      -2.89388595      -0.15172506       2.46661683       0.00000000
Si       2.75001267      -2.65180025       0.10940698       0.00000000
