10
Lattice="16.290000149 0.0 0.0 0.0 16.290000149 0.0 0.0 0.0 29.1751946751" Properties=species:S:1:pos:R:3:initial_magmoms:R:1 pbc="T T T"
Si      -0.92191790       0.81269833       1.99981372       0.00000000
Si       1.36021338       1.38682310      -1.34051267       0.00000000
Si      -1.86554874      -0.94389148      -1.09768752       0.00000000
Si       1.84870162      -1.17388347       0.93205994       0.00000000
H        2.64205721       1.42354076      -0.51972692       0.00000000
H       -3.02446822       0.04132936      -0.98168695       0.00000000
Si       0.53775245      -2.60525321       2.27925373       0.00000000
Si       1.97271739      -0.13581136      -3.09055755       0.00000000
Si       0.41601565       2.79077676       2.47933722       0.00000000
Si      -0.63215366      -1.01391290       3.56800961       0.00000000
