10
Lattice="16.290000149 0.0 0.0 0.0 16.290000149 0.0 0.0 0.0 29.1751946751" Properties=species:S:1:pos:R:3:initial_magmoms:R:1 pbc="T T T"
Si       1.35104374      -1.37124334       1.33246032       0.00000000
Si      -1.35386191      -1.36922338      -1.33566959       0.00000000
Si       1.37929060       1.33556824      -1.35842624       0.00000000
Si      -1.37168317       1.34576578       1.36417375       0.00000000
Si       2.63686232       0.07824087       2.63326555       0.00000000
Si      -2.68171032      -0.00874773      -2.70906270       0.00000000
Si       0.03241710      -2.72440804      -2.66754640       0.00000000
Si      -2.70070609       2.70329294      -0.00393865       0.00000000
Si       0.03567510       2.71801910      -2.70206065       0.00000000
Si      -2.69819906      -2.72301688       0.04288754       0.00000000
