10
Lattice="16.290000149 0.0 0.0 0.0 16.290000149 0.0 0.0 0.0 29.1751946751" Properties=species:S:1:pos:R:3:initial_magmoms:R:1 pbc="T T T"
Si       1.34550677       1.32958981      -1.38065190       0.00000000
Si      -1.33100541      -1.36130644      -1.37792110       0.00000000
Si      -1.35361593       1.38934153       1.32977620       0.00000000
Si       1.37052821      -1.34814412       1.36300674       0.00000000
Si      -2.62632107      -2.67551849       0.09050145       0.00000000
Si       2.70853995       2.69713532      -0.01776769       0.00000000
Si      -2.69415263       0.03593574       2.71483939       0.00000000
Si      -0.04040897       2.66853008      -2.75326312       0.00000000
Si       0.01113747       2.71935488       2.70853755       0.00000000
Si       2.73075951       0.00636939       2.71647320       0.00000000
