10
Lattice="16.290000149 0.0 0.0 0.0 16.290000149 0.0 0.0 0.0 29.1751946751" Properties=species:S:1:pos:R:3:initial_magmoms:R:1 pbc="T T T"
Si      -2.19628298       0.72964540       0.45049418       0.00000000
Si      -0.27867303      -2.02308770       1.20204720       0.00000000
Si       1.57403755       1.31061196       1.20849491       0.00000000
Si      -0.28681803       0.88777243      -2.24281392       0.00000000
H        2.24728697      -0.94226248      -1.63226462       0.00000000
H        0.81883315      -1.84770956      -2.19899277       0.00000000
H        1.62701263      -2.56709225      -0.52693319       0.00000000
H        1.02571615      -2.50098743       1.80591538       0.00000000
Si      -2.15252804       2.88072363      -0.51613837       0.00000000
Si      -0.40461102       3.19242626      -2.00567793       0.00000000
