10
Lattice="16.290000149 0.0 0.0 0.0 16.290000149 0.0 0.0 0.0 29.1751946751" Properties=species:S:1:pos:R:3:initial_magmoms:R:1 pbc="T T T"
Si       1.37753128       1.33675741       1.33552371       0.00000000
Si       1.37793853      -1.36850662      -1.30979119       0.00000000
Si      -1.35327547      -1.35083197       1.36113953       0.00000000
Si      -1.35172792       1.37569051      -1.34118370       0.00000000
Si      -0.05649372       2.65732256       2.61905723       0.00000000
Si      -0.00081450      -2.70386309      -2.65412581       0.00000000
Si       2.73398330      -0.01295055      -2.66734217       0.00000000
Si      -2.71661816       0.01907559      -2.68750223       0.00000000
Si       0.01169622      -2.67555107       2.74036769       0.00000000
Si       2.72590346       2.69609276      -0.01762182       0.00000000
