10
Lattice="16.290000149 0.0 0.0 0.0 16.290000149 0.0 0.0 0.0 29.1751946751" Properties=species:S:1:pos:R:3:initial_magmoms:R:1 pbc="T T T"
Si       1.42413697      -1.36171369      -1.26961695       0.00000000
Si       1.35630541       1.34974054       1.35472099       0.00000000
Si      -1.32413266      -1.38680029       1.38319598       0.00000000
Si      -1.33995025       1.33602436      -1.42188229       0.00000000
Si       0.03473028      -2.70630659      -2.54660646       0.00000000
Si      -2.68525991       2.61571790       0.03921146       0.00000000
Si       2.69684210       2.70314633      -0.03034220       0.00000000
Si       2.70254360      -0.03036456       2.70912105       0.00000000
Si       0.01308087       2.68118741       2.74165139       0.00000000
Si      -2.71171487      -0.07084521      -2.73408918       0.00000000
