10
Lattice="16.290000149 0.0 0.0 0.0 16.290000149 0.0 0.0 0.0 29.1751946751" Properties=species:S:1:pos:R:3:initial_magmoms:R:1 pbc="T T T"
Si       1.41670873      -1.34383525       1.25411908       0.00000000
Si      -1.49784922       1.23582131       1.27995664       0.00000000
Si      -1.03935088      -1.85382157      -0.95163942       0.00000000
Si       0.86457547       1.72820286      -1.38371792       0.00000000
H       -2.04898880       0.78007598      -2.06308013       0.00000000
Si      -1.86896801      -0.61089455      -2.66706501       0.00000000
Si      -0.07820829       2.66458465       2.51631678       0.00000000
Si       2.64396476      -2.54674930      -0.34452696       0.00000000
Si      -0.84113416       3.39642919      -1.25704827       0.00000000
Si      -0.04294044      -2.77956598       2.47080347       0.00000000
