10
Lattice="16.290000149 0.0 0.0 0.0 16.290000149 0.0 0.0 0.0 29.1751946751" Properties=species:S:1:pos:R:3:initial_magmoms:R:1 pbc="T T T"
Si       1.26025957      -1.63737307       1.15446245       0.00000000
Si       1.30127779       1.29261151      -1.49712511       0.00000000
Si      -1.01076193       1.75216871       1.26769138       0.00000000
Si      -1.30350952      -1.66478915      -1.17724828       0.00000000
H        0.22120191      -2.73569375       1.36665364       0.00000000
H       -3.08337123      -1.06072336       0.36203499       0.00000000
H       -2.48207474      -1.12682818      -1.97081358       0.00000000
H       -0.31200237      -1.19832499       3.18733167       0.00000000
H       -1.86180041       0.49800159      -3.07614500       0.00000000
Si      -2.53504982       2.75087604      -0.23538547       0.00000000
