10
Lattice="16.290000149 0.0 0.0 0.0 16.290000149 0.0 0.0 0.0 29.1751946751" Properties=species:S:1:pos:R:3:initial_magmoms:R:1 pbc="T T T"
Si       0.84882304      -1.87743881      -1.11107894       0.00000000
Si       1.48646251       1.25012719       1.37520198       0.00000000
Si      -1.38712609       1.31836600      -1.43031392       0.00000000
Si      -1.31049793      -1.36699165       1.48530916       0.00000000
H        1.37930689      -1.62248401      -2.49885542       0.00000000
H        2.56336184       0.16060311      -2.14945329       0.00000000
Si       0.00317655       2.55004672       2.71154259       0.00000000
H       -0.17295093      -0.75684970      -3.67315701       0.00000000
Si      -2.80458417       2.49792491       0.03410580       0.00000000
Si       2.53596206      -2.80864038       0.20189235       0.00000000
