10
Lattice="16.290000149 0.0 0.0 0.0 16.290000149 0.0 0.0 0.0 29.1751946751" Properties=species:S:1:pos:R:3:initial_magmoms:R:1 pbc="T T T"
Si      -1.30256470       1.43079958       1.30127728       0.00000000
Si       1.26571672       1.48532221      -1.32023591       0.00000000
Si       1.45671697      -1.41529150       1.21284202       0.00000000
Si      -1.37461537      -1.02622114      -1.63602822       0.00000000
Si       0.34261128      -1.46629549      -3.16127822       0.00000000
Si      -0.42142230       2.41652378      -2.63320720       0.00000000
Si       2.23360337       0.04396671      -2.84636117       0.00000000
Si      -2.21698757       0.82165132      -2.75790198       0.00000000
Si       2.41126211      -2.68429880      -0.54665562       0.00000000
Si      -2.60279993      -0.05362668       2.57402531       0.00000000
