10
Lattice="16.290000149 0.0 0.0 0.0 16.290000149 0.0 0.0 0.0 29.1751946751" Properties=species:S:1:pos:R:3:initial_magmoms:R:1 pbc="T T T"
Si       1.91633933      -1.06638576       0.77891935       0.00000000
Si      -1.25219602      -1.32709093      -1.46523663       0.00000000
Si       1.13630896       1.43608406      -1.52761319       0.00000000
Si      -0.98254765       0.39556030       2.15339194       0.00000000
H       -1.89131789       1.95151595       0.66181012       0.00000000
Si       0.03867246       2.54582403       2.55548448       0.00000000
Si      -2.60154560      -2.61626525      -0.09604474       0.00000000
H        3.24798168       1.67873990       0.56354806       0.00000000
Si       2.60092658       2.72001300      -0.30814841       0.00000000
Si       2.68024259       0.11621612      -2.69491273       0.00000000
