10
Lattice="16.290000149 0.0 0.0 0.0 16.290000149 0.0 0.0 0.0 29.1751946751" Properties=species:S:1:pos:R:3:initial_magmoms:R:1 pbc="T T T"
H        1.30438918      -0.47789973       0.60386818       0.00000000
Si      -1.26096004       0.24426855       1.93592004       0.00000000
Si       0.27867303       2.02308770      -1.20204720       0.00000000
Si      -0.98482825      -1.98850403      -0.87041276       0.00000000
H        1.90568567      -0.54400456      -1.72898039       0.00000000
H       -0.87910615      -2.72041373       1.82079472       0.00000000
Si       3.08425089      -1.08196552      -0.93541509       0.00000000
Si      -1.91760995       2.75273310      -0.75155301       0.00000000
Si      -3.31648113      -0.45774900       1.02825056       0.00000000
H        1.09750618       0.17537814      -3.40103997       0.00000000
