10
Lattice="16.290000149 0.0 0.0 0.0 16.290000149 0.0 0.0 0.0 29.1751946751" Properties=species:S:1:pos:R:3:initial_magmoms:R:1 pbc="T T T"
Si       1.17856522      -0.53796096       0.79356530       0.00000000
H       -0.80817949       0.71938270      -1.67205958       0.00000000
H        0.62027434       1.62482977      -1.10533143       0.00000000
H       -0.60129649       0.06610482       2.33284857       0.00000000
Si      -1.90568567       0.54400456       1.72898039       0.00000000
Si      -1.66045601      -0.22556763      -2.46183210       0.00000000
Si      -1.62701263       2.56709225       0.52693319       0.00000000
Si       2.50623281      -1.61741782      -0.82834213       0.00000000
Si       0.47910519      -2.40103199       2.21355120       0.00000000
Si      -2.89051392      -1.44449947       0.85856763       0.00000000
