10
Lattice="16.290000149 0.0 0.0 0.0 16.290000149 0.0 0.0 0.0 29.1751946751" Properties=species:S:1:pos:R:3:initial_magmoms:R:1 pbc="T T T"
Si      -1.35977518      -1.36321237       1.34237988       0.00000000
Si      -1.36026388       1.35243491      -1.35299965       0.00000000
Si       1.33196815       1.35467315       1.38357526       0.00000000
Si       1.35045730      -1.36093177      -1.36026428       0.00000000
Si       2.68283270       2.70557354       0.00936524       0.00000000
Si      -2.71202438       0.02166570       2.68052936       0.00000000
Si       0.02849121      -2.70501968       2.68901934       0.00000000
Si      -2.70734915      -0.03510495      -2.69243284       0.00000000
Si       2.66499515      -0.01081656       2.75553879       0.00000000
Si      -0.01093059       2.73971739      -2.68901934       0.00000000
