10
Lattice="16.290000149 0.0 0.0 0.0 16.290000149 0.0 0.0 0.0 29.1751946751" Properties=species:S:1:pos:R:3:initial_magmoms:R:1 pbc="T T T"
Si      -1.44748054       1.19327509       1.35492843       0.00000000
Si      -1.35526285      -1.34830702      -1.34095030       0.00000000
Si       1.27817857      -1.49617135       1.33809638       0.00000000
Si       1.31049793       1.36699165      -1.48530916       0.00000000
Si       2.15932097      -0.51044715      -2.59638810       0.00000000
Si       0.36375570      -2.10531962      -2.72108288       0.00000000
Si      -0.02032992       2.55173078       2.63461052       0.00000000
Si      -2.80503540       2.43354683      -0.10400957       0.00000000
Si       2.69200397      -0.20026926       2.68127916       0.00000000
Si      -2.79260613      -0.26971353       2.58824822       0.00000000
