10
Lattice="16.290000149 0.0 0.0 0.0 16.290000149 0.0 0.0 0.0 29.1751946751" Properties=species:S:1:pos:R:3:initial_magmoms:R:1 pbc="T T T"
Si       0.28234317      -0.81640594      -2.15540503       0.00000000
Si      -2.27378591       0.48247722      -0.11349151       0.00000000
Si       1.28118082       1.99111857       0.11200357       0.00000000
Si       1.04360746      -1.54347751       1.47813206       0.00000000
Si      -2.55708531       1.18303845       2.10487359       0.00000000
Si       3.35339916       1.26999936       0.95709226       0.00000000
Si       2.57462312      -0.22651245       2.67020134       0.00000000
Si       1.93699993      -2.46918935      -2.05772648       0.00000000
Si       1.19665201       0.91681750      -3.43750896       0.00000000
Si       2.42415239      -2.88199425       0.15454101       0.00000000
