10
Lattice="16.290000149 0.0 0.0 0.0 16.290000149 0.0 0.0 0.0 29.1751946751" Properties=species:S:1:pos:R:3:initial_magmoms:R:1 pbc="T T T"
Si       1.30256470      -1.43079958      -1.30127728       0.00000000
Si       1.41382540       1.29590209       1.34318278       0.00000000
Si      -1.30023523      -1.48442626       1.27274803       0.00000000
Si      -1.27817857       1.49617135      -1.33809638       0.00000000
Si       2.56828142       0.05452263      -2.62151319       0.00000000
Si      -2.68486895      -0.11248245       2.62276306       0.00000000
Si      -2.63344142       0.14786433      -2.67904668       0.00000000
Si       0.03117906       2.65302200       2.66582565       0.00000000
Si      -2.72565912       2.68944644       0.01683205       0.00000000
Si      -0.07205067      -2.45702072      -2.93730550       0.00000000
