10
Lattice="16.290000149 0.0 0.0 0.0 16.290000149 0.0 0.0 0.0 29.1751946751" Properties=species:S:1:pos:R:3:initial_magmoms:R:1 pbc="T T T"
Si       2.27378591      -0.48247722       0.11349151       0.00000000
Si      -0.28329939       0.70056123       2.21836510       0.00000000
Si      -0.56544220       1.73428880      -1.52948041       0.00000000
Si      -1.52164891      -1.84551041      -0.43826977       0.00000000
H       -1.44221887       1.68578207       2.33436568       0.00000000
Si       2.55612908      -1.29888316      -2.04191352       0.00000000
Si      -1.10211625      -1.23413041       3.21536903       0.00000000
Si      -2.67305870      -1.97915357       1.61723939       0.00000000
Si      -2.55761147       2.61907364      -0.54931057       0.00000000
Si      -3.04593681      -0.84680308      -1.94134663       0.00000000
