10
Lattice="16.290000149 0.0 0.0 0.0 16.290000149 0.0 0.0 0.0 29.1751946751" Properties=species:S:1:pos:R:3:initial_magmoms:R:1 pbc="T T T"
Si       0.96788665      -1.44135550      -1.52612526       0.00000000
Si      -1.68713903       0.93120157      -1.31297129       0.00000000
Si      -1.26571672      -1.48532221       1.32023591       0.00000000
Si       1.50654808       1.28718694       1.28038259       0.00000000
H       -1.15665517       1.18615636      -2.70074777       0.00000000
Si      -0.92310544      -2.95161771      -1.84104231       0.00000000
Si      -2.64033209      -2.51154335      -0.31579231       0.00000000
Si      -2.56828142      -0.05452263       2.62151319       0.00000000
Si       0.16669557       2.64534941       2.62345714       0.00000000
Si       2.53004879      -2.72668539      -0.39946677       0.00000000
