10
Lattice="16.290000149 0.0 0.0 0.0 16.290000149 0.0 0.0 0.0 29.1751946751" Properties=species:S:1:pos:R:3:initial_magmoms:R:1 pbc="T T T"
H        0.58442005       1.32546844      -1.08590075       0.00000000
Si       0.37910088       0.66793888       2.21503913       0.00000000
Si      -1.00986598       1.94800709      -0.85877186       0.00000000
Si      -1.79281226      -1.49305996       0.33866566       0.00000000
Si       1.77396473      -0.99193069      -1.26970447       0.00000000
H       -0.37903572      -1.45033129      -2.80216075       0.00000000
Si       1.87005944      -1.20653515       2.56102776       0.00000000
Si       2.50421285      -2.29969190       0.52987989       0.00000000
Si      -2.42183432       0.82614736      -2.34268061       0.00000000
Si      -1.06699501      -3.52553885      -0.44042874       0.00000000
