10
Lattice="16.290000149 0.0 0.0 0.0 16.290000149 0.0 0.0 0.0 29.1751946751" Properties=species:S:1:pos:R:3:initial_magmoms:R:1 pbc="T T T"
Si       1.38264634      -1.35711991      -1.32264286       0.00000000
Si       1.33776739       1.32491458       1.40410876       0.00000000
Si      -1.35301483      -1.39795894       1.31982162       0.00000000
Si      -1.32968755       1.39488013      -1.36931150       0.00000000
Si      -0.03117906      -2.65302200      -2.66582565       0.00000000
Si       2.70379793       0.04685004      -2.66388170       0.00000000
Si      -2.65867463       2.71015103       0.04965910       0.00000000
Si      -2.70482420      -0.02774187       2.67719755       0.00000000
Si      -2.75683818       0.03642444      -2.64899360       0.00000000
Si       2.68690520       2.72068855       0.09374282       0.00000000
