10
Lattice="16.290000149 0.0 0.0 0.0 16.290000149 0.0 0.0 0.0 29.1751946751" Properties=species:S:1:pos:R:3:initial_magmoms:R:1 pbc="T T T"
Si      -1.35630541      -1.34974054      -1.35472099       0.00000000
Si      -1.34322454       1.33144687       1.38693040       0.00000000
Si       1.34053669       1.35340579      -1.38506319       0.00000000
Si       1.34623819      -1.38010510       1.35440006       0.00000000
Si       0.06783156      -2.71145423      -2.62433794       0.00000000
Si      -2.70635546       2.67061520       0.02284418       0.00000000
Si       2.70529010       2.68341914      -0.00630184       0.00000000
Si       2.69415263      -0.03593574      -2.71483939       0.00000000
Si      -2.69500133      -0.05975172       2.71434341       0.00000000
Si       2.69839291      -0.02722059       2.71565630       0.00000000
