10
Lattice="16.290000149 0.0 0.0 0.0 16.290000149 0.0 0.0 0.0 29.1751946751" Properties=species:S:1:pos:R:3:initial_magmoms:R:1 pbc="T T T"
Si       1.17630091       0.52587378       1.07154655       0.00000000
Si      -1.29604870      -0.56540962      -0.90294310       0.00000000
Si      -0.07398918      -2.41908131      -1.57557721       0.00000000
Si      -0.36585711       1.79178599       2.27061788       0.00000000
Si       2.84767284       1.31118211      -0.37335497       0.00000000
Si      -3.08749260      -1.15127947       0.53644430       0.00000000
Si       2.31324518      -0.97898014       2.45351455       0.00000000
Si      -2.33162030       0.77362840      -2.50970860       0.00000000
Si      -1.84078631       2.99968950       0.81699298       0.00000000
H       -0.31040595       0.73463014      -3.53515834       0.00000000
