10
Lattice="16.290000149 0.0 0.0 0.0 16.290000149 0.0 0.0 0.0 29.1751946751" Properties=species:S:1:pos:R:3:initial_magmoms:R:1 pbc="T T T"
H        0.53048385       0.25495479      -1.38777649       0.00000000
Si       1.68713903      -0.93120157       1.31297129       0.00000000
Si      -0.84882304       1.87743881       1.11107894       0.00000000
Si      -1.79556527      -1.59487246      -0.12469478       0.00000000
H        1.71453881       2.03804192      -1.03837435       0.00000000
H       -1.02177397       1.12058911      -2.56207807       0.00000000
H       -0.14384070      -0.66699406      -3.01945760       0.00000000
Si      -2.15932097       0.51044715       2.59638810       0.00000000
Si       2.65502567      -2.37255707      -0.21315397       0.00000000
Si       0.42142230      -2.41652378       2.63320720       0.00000000
