10
Lattice="16.290000149 0.0 0.0 0.0 16.290000149 0.0 0.0 0.0 29.1751946751" Properties=species:S:1:pos:R:3:initial_magmoms:R:1 pbc="T T T"
Si       1.33392295       1.36497821      -1.36898766       0.00000000
Si      -1.36265851      -1.34160532      -1.37747764       0.00000000
Si      -1.43459515       1.35983057       1.28980618       0.00000000
Si       1.40113549      -1.33816813       1.36265664       0.00000000
Si       2.70327665      -2.68517195      -0.06908686       0.00000000
Si       0.05652630      -2.71596005       2.67533618       0.00000000
Si       2.69557148       2.70986433      -0.00148793       0.00000000
Si      -0.14877657       2.80931478       2.59061141       0.00000000
Si      -2.72629442      -2.69142731      -0.02777479       0.00000000
Si       2.62663220       0.09891614       2.79051985       0.00000000
