10
Lattice="16.290000149 0.0 0.0 0.0 16.290000149 0.0 0.0 0.0 29.1751946751" Properties=species:S:1:pos:R:3:initial_magmoms:R:1 pbc="T T T"
Si       1.30093570      -1.34848621       1.41878972       0.00000000
Si      -1.37740096       1.34951248       1.35028636       0.00000000
Si      -1.42930090      -1.40326948      -1.24248110       0.00000000
Si       1.42780222       1.38971620      -1.28140956       0.00000000
Si      -2.63226854      -0.00687438      -2.68463431       0.00000000
Si       2.71414208      -0.05866029      -2.61162339       0.00000000
Si       0.05209542       2.65355957      -2.69791194       0.00000000
Si      -0.11460015      -2.72668864      -2.64321720       0.00000000
Si       2.63081873      -2.76766940       0.13195941       0.00000000
Si      -0.02995731       2.70627401       2.71253455       0.00000000
