10
Lattice="16.290000149 0.0 0.0 0.0 16.290000149 0.0 0.0 0.0 29.1751946751" Properties=species:S:1:pos:R:3:initial_magmoms:R:1 pbc="T T T"
H        1.59428602      -0.62253865      -0.22712889       0.00000000
Si      -1.41196834      -1.12185973      -1.48390875       0.00000000
Si       1.00986598      -1.94800709       0.85877186       0.00000000
Si      -1.61587027       0.73477675       1.57219289       0.00000000
Si       1.70701283       1.47841525      -0.79937116       0.00000000
H        0.82331290       1.98465959       1.62899699       0.00000000
H       -0.81997345       0.77533885       2.85377167       0.00000000
H        0.29393676       2.52231104       1.81096268       0.00000000
Si      -1.92142181       2.63533106       0.12612437       0.00000000
Si       0.18821466       3.25422075      -0.88024480       0.00000000
