10
Lattice="16.290000149 0.0 0.0 0.0 16.290000149 0.0 0.0 0.0 29.1751946751" Properties=species:S:1:pos:R:3:initial_magmoms:R:1 pbc="T T T"
Si       1.33830496       1.33411843      -1.37680661       0.00000000
Si      -1.43863507       1.36749664       1.23568620       0.00000000
Si      -1.38406357      -1.34252407      -1.34976121       0.00000000
Si       1.33498180      -1.35506737       1.38681370       0.00000000
Si      -0.16316064      -2.74199799       2.52225393       0.00000000
Si       2.69804756       2.64407879       0.01024049       0.00000000
Si      -0.01490535      -2.73484668      -2.65651818       0.00000000
Si      -2.79274134       0.03042972       2.60026840       0.00000000
Si       2.71202438      -0.02339244      -2.69905561       0.00000000
Si      -0.01822851       2.66978441      -2.75460518       0.00000000
