10
Lattice="16.290000149 0.0 0.0 0.0 16.290000149 0.0 0.0 0.0 29.1751946751" Properties=species:S:1:pos:R:3:initial_magmoms:R:1 pbc="T T T"
Si      -1.34666173      -1.32773275      -1.40420212       0.00000000
Si      -1.38781027       1.34757397       1.35402078       0.00000000
Si       1.35381304       1.34796493      -1.39334895       0.00000000
Si       1.38726619      -1.35594703       1.35480852       0.00000000
Si      -2.68591151      -2.67747329      -0.02865004       0.00000000
Si       2.65861436      -2.71689509      -0.06969954       0.00000000
Si      -2.72139113       2.66442500      -0.08667950       0.00000000
Si       0.01858689       2.71671590       2.67326474       0.00000000
Si       2.74654778       0.05830191       2.66477476       0.00000000
Si      -2.73843048      -0.04175127       2.70856672       0.00000000
