10
Lattice="16.290000149 0.0 0.0 0.0 16.290000149 0.0 0.0 0.0 29.1751946751" Properties=species:S:1:pos:R:3:initial_magmoms:R:1 pbc="T T T"
Si      -0.08441478       0.69274855       2.23007311       0.00000000
Si       0.72956395      -2.19219419      -0.39742450       0.00000000
Si       1.93851002       1.03192264      -0.90451856       0.00000000
Si      -2.20793033       0.38141406      -0.79858343       0.00000000
H        2.45294822      -0.25014924       1.48603854       0.00000000
Si       2.63296901      -1.64111977       0.88205366       0.00000000
Si      -2.15695892       2.67646331      -0.13537290       0.00000000
Si       1.46085463      -1.84960245      -2.65914394       0.00000000
Si       1.00712926       2.07288623      -2.74130129       0.00000000
Si       0.23149719       0.01902672      -3.59963552       0.00000000
