10
Lattice="16.290000149 0.0 0.0 0.0 16.290000149 0.0 0.0 0.0 29.1751946751" Properties=species:S:1:pos:R:3:initial_magmoms:R:1 pbc="T T T"
Si       1.32484942       1.33688757       1.33738217       0.00000000
Si      -1.41670873       1.34383525      -1.25411908       0.00000000
Si       1.22725603      -1.20291405      -1.59864604       0.00000000
Si      -1.45964917      -1.43573073       1.21668439       0.00000000
Si      -2.45605961      -0.50998631      -2.20575850       0.00000000
Si      -0.71540794      -2.05396881      -2.66508518       0.00000000
Si       2.62335650       2.62844512      -0.13429050       0.00000000
Si       2.64199595      -0.09726287       2.61443879       0.00000000
Si       2.53022798      -2.72990608      -0.27753779       0.00000000
Si      -0.11725542       2.66871400       2.62082816       0.00000000
