10
Lattice="16.290000149 0.0 0.0 0.0 16.290000149 0.0 0.0 0.0 29.1751946751" Properties=species:S:1:pos:R:3:initial_magmoms:R:1 pbc="T T T"
Si       0.07099182       1.04016538       1.09795010       0.00000000
H        1.18315574       1.80041969      -1.92258698       0.00000000
Si      -2.45009747      -1.46644210      -0.98364169       0.00000000
Si      -1.54365670       0.33840846       2.65856044       0.00000000
Si      -0.45792819      -2.35122695      -1.96381153       0.00000000
Si       2.26994310       1.21173166       1.75593827       0.00000000
Si      -0.36095382       3.17922159       0.21825963       0.00000000
Si       2.29718324       0.79786792      -2.18157518       0.00000000
Si      -3.08425089      -0.37328535       1.04750619       0.00000000
H       -1.33470487      -2.39973368       1.90003455       0.00000000
