10
Lattice="16.290000149 0.0 0.0 0.0 16.290000149 0.0 0.0 0.0 29.1751946751" Properties=species:S:1:pos:R:3:initial_magmoms:R:1 pbc="T T T"
Si      -1.40389665       1.16535403      -1.46051025       0.00000000
Si      -1.46219856      -1.17652897       1.41382410       0.00000000
Si       1.46322972      -1.27490428      -1.34561833       0.00000000
Si       1.21770683       1.49481928       1.39445760       0.00000000
H       -2.29823395       1.91601353      -0.48349133       0.00000000
Si       2.65505011       0.41622579      -2.53474091       0.00000000
Si      -0.07288961      -2.53501724       2.76979962       0.00000000
Si      -2.85776287      -2.49632849       0.04598011       0.00000000
Si       2.60362258       0.15587901       2.76706882       0.00000000
Si      -0.24474911       2.79705819      -2.64020924       0.00000000
