10
Lattice="16.290000149 0.0 0.0 0.0 16.290000149 0.0 0.0 0.0 29.1751946751" Properties=species:S:1:pos:R:3:initial_magmoms:R:1 pbc="T T T"
Si      -1.22725603       1.20291405       1.59864604       0.00000000
Si      -1.94266397      -0.85105477      -1.06643914       0.00000000
Si       1.30297195      -1.52699203       1.32110825       0.00000000
Si       1.48183387       1.30849703      -1.36725465       0.00000000
H       -0.85177153      -2.56490939      -1.84170167       0.00000000
Si      -2.64396476       2.54674930       0.34452696       0.00000000
Si       2.65173998      -0.28284327      -2.65601053       0.00000000
Si       2.82844902       2.52338455       0.11383869       0.00000000
Si      -3.68331564       0.69292774      -0.60711246       0.00000000
Si       2.69462504      -0.24037524       2.75633819       0.00000000
