10
Lattice="16.290000149 0.0 0.0 0.0 16.290000149 0.0 0.0 0.0 29.1751946751" Properties=species:S:1:pos:R:3:initial_magmoms:R:1 pbc="T T T"
Si      -1.36376623      -1.36122499       1.32960115       0.00000000
Si       1.33613839      -1.44177904      -1.28858082       0.00000000
Si      -1.38549709       1.35672895      -1.33873298       0.00000000
Si       1.38031687       1.34443000       1.35664655       0.00000000
Si       2.69171075      -0.10116090      -2.60406118       0.00000000
Si       0.02101410      -2.69809643       2.67968328       0.00000000
Si      -2.71353935       0.00397476       2.68531409       0.00000000
Si      -0.03635928       2.75250292      -2.64909892       0.00000000
Si      -2.69887835      -2.71290404      -0.06409790       0.00000000
Si      -2.70904331       2.70865235       0.04580506       0.00000000
