10
Lattice="16.290000149 0.0 0.0 0.0 16.290000149 0.0 0.0 0.0 29.1751946751" Properties=species:S:1:pos:R:3:initial_magmoms:R:1 pbc="T T T"
Si       1.34661514       1.21488752       1.48109335       0.00000000
Si       1.16990611      -1.59134030      -1.28875587       0.00000000
Si      -1.48183387      -1.30849703       1.36725465       0.00000000
Si      -0.28976424       1.82661124      -1.56819589       0.00000000
Si       2.48085527      -0.15997057      -2.63594966       0.00000000
Si       2.68088019       2.62216597       0.12775614       0.00000000
Si       0.63215366       1.01391290      -3.56800961       0.00000000
Si      -0.08573341       2.52286213       2.83161019       0.00000000
Si       2.52746096      -2.83161205       0.17018212       0.00000000
Si       2.62562450      -0.15788545       2.86883482       0.00000000
