10
Lattice="16.290000149 0.0 0.0 0.0 16.290000149 0.0 0.0 0.0 29.1751946751" Properties=species:S:1:pos:R:3:initial_magmoms:R:1 pbc="T T T"
Si      -1.38764737      -1.36089919       1.31355479       0.00000000
Si      -1.37024965       1.34040637      -1.35466264       0.00000000
Si       1.35161389      -1.37011933      -1.35139502       0.00000000
Si       1.37668420       1.36614457       1.33695330       0.00000000
Si       2.77244400      -0.08513154       2.52954773       0.00000000
Si       0.00648342       2.69597873      -2.68691873       0.00000000
Si      -0.06836913      -2.80362306       2.58999873       0.00000000
Si      -2.68925096       2.70971120       0.02856252       0.00000000
Si      -2.67801086       0.00941562       2.72408793       0.00000000
Si       2.72624555      -0.02821428      -2.69453345       0.00000000
