10
Lattice="16.290000149 0.0 0.0 0.0 16.290000149 0.0 0.0 0.0 29.1751946751" Properties=species:S:1:pos:R:3:initial_magmoms:R:1 pbc="T T T"
Si      -0.37910088      -0.66793888      -2.21503913       0.00000000
Si      -1.98778727      -0.61480090       1.16957520       0.00000000
Si       0.77392162       2.02992950       1.02291150       0.00000000
Si       1.49095855      -1.87447403       0.34598863       0.00000000
H       -2.20894031       2.05540706      -0.22003932       0.00000000
Si       1.80949322       0.69089149       2.62967700       0.00000000
H        0.20531916       0.65752957      -3.30093988       0.00000000
H        2.79513597       1.99093124      -0.00253824       0.00000000
Si      -1.05640651      -1.65576449       3.00635794       0.00000000
Si      -2.17191314      -2.16099884      -1.87637347       0.00000000
