10
Lattice="16.290000149 0.0 0.0 0.0 16.290000149 0.0 0.0 0.0 29.1751946751" Properties=species:S:1:pos:R:3:initial_magmoms:R:1 pbc="T T T"
H        2.02121435      -0.03899826      -1.02544974       0.00000000
Si       1.03557160      -1.33903801       1.60676550       0.00000000
Si       0.74538154       1.86276152      -1.29219855       0.00000000
Si      -0.77392162      -2.02992950      -1.02291150       0.00000000
Si      -1.07965234       1.11068479       1.85767217       0.00000000
H       -1.33957558       1.23479830      -2.46772549       0.00000000
H       -2.98286193       0.02547756      -1.24295082       0.00000000
H       -1.86895172       1.77244976      -2.28575980       0.00000000
H        2.33162030      -0.77362840       2.50970860       0.00000000
Si      -1.02192058       3.42335982      -0.65512900       0.00000000
