10
Lattice="16.290000149 0.0 0.0 0.0 16.290000149 0.0 0.0 0.0 29.1751946751" Properties=species:S:1:pos:R:3:initial_magmoms:R:1 pbc="T T T"
Si      -1.30558179      -1.34437429       1.36353190       0.00000000
Si      -1.47064836       1.29157091      -1.27110488       0.00000000
Si       1.22776736       1.36119437       1.44854842       0.00000000
Si       1.37757834      -1.39738195      -1.29806276       0.00000000
Si       2.60784640      -0.09123345       2.60508231       0.00000000
Si      -0.08772509       2.62750242      -2.65339643       0.00000000
Si       2.63726614       2.65260531       0.05592885       0.00000000
Si      -2.61024790       0.05779578       2.70605766       0.00000000
Si       2.71492057      -0.04835817      -2.66807155       0.00000000
Si      -2.58718126      -2.80338815       0.06821161       0.00000000
