10
Lattice="16.290000149 0.0 0.0 0.0 16.290000149 0.0 0.0 0.0 29.1751946751" Properties=species:S:1:pos:R:3:initial_magmoms:R:1 pbc="T T T"
Si       0.61444252      -1.30376690       0.44264605       0.00000000
Si      -1.50798160       1.48265065       0.62236525       0.00000000
H        2.01218969       0.34047729      -1.41347983       0.00000000
Si      -0.02150280       2.67309128      -0.76474020       0.00000000
Si       1.11710305       1.24463746      -2.22778869       0.00000000
Si      -2.82707772      -0.22876047      -0.50321376       0.00000000
Si      -1.60729196      -1.51396492      -2.11094204       0.00000000
Si      -0.22069692       1.63043353       2.64902015       0.00000000
Si      -0.22721292      -2.96639274      -0.95440814       0.00000000
Si       2.92095993      -1.21547836       0.07810200       0.00000000
