10
Lattice="16.290000149 0.0 0.0 0.0 16.290000149 0.0 0.0 0.0 29.1751946751" Properties=species:S:1:pos:R:3:initial_magmoms:R:1 pbc="T T T"
Si      -1.34675784       1.35990550      -1.35577130       0.00000000
Si       1.35728281       1.36249235       1.35022801       0.00000000
Si      -1.37564327      -1.34812783       1.35028636       0.00000000
Si       1.31672071      -1.37122705      -1.38903102       0.00000000
Si       0.01397682      -2.69674436       2.68026678       0.00000000
Si      -2.66126246      -0.02347389      -2.72003257       0.00000000
Si       2.70435179      -0.01182654      -2.69254954       0.00000000
Si      -0.02899620       2.71767701       2.68210482       0.00000000
Si      -2.69010930      -2.71437014      -0.04414207       0.00000000
Si       2.69985575      -2.71650413      -0.05304050       0.00000000
