10
Lattice="10.86 0.0 0.0 0.0 10.86 0.0 0.0 0.0 10.86" Properties=species:S:1:pos:R:3:initial_magmoms:R:1 pbc="T T T"
Si      -1.31212692      -1.11773292       1.27165170       0.00000000
Si       1.40287308      -1.11773292      -1.44334830       0.00000000
Si       1.25459064       1.22687592       1.52334306       0.00000000
Si      -1.31212692       1.59726708      -1.44334830       0.00000000
Si       0.04537308      -2.47523292       2.62915170       0.00000000
Si      -2.66962692      -2.47523292      -0.08584830       0.00000000
Si       2.76037308      -2.47523292      -0.08584830       0.00000000
Si       0.04537308      -2.47523292      -2.80084830       0.00000000
Si      -2.66962692       0.23976708       2.62915170       0.00000000
Si       0.26653698       2.69960052      -2.63395182       0.00000000
