10
Lattice="10.86 0.0 0.0 0.0 10.86 0.0 0.0 0.0 10.86" Properties=species:S:1:pos:R:3:initial_magmoms:R:1 pbc="T T T"
Si      -1.31672070      -1.06641942       1.14729384       0.00000000
Si      -1.31171424       1.31886012      -1.38693060       0.00000000
Si       1.40328576       1.31886012       1.32806940       0.00000000
Si       1.40328576      -1.39613988      -1.38693060       0.00000000
Si       2.64248778      -2.53112934      -0.21830772       0.00000000
Si      -2.44000308      -0.16880784       2.84150814       0.00000000
Si      -2.66921424       2.67636012      -0.02943060       0.00000000
Si       0.04578576       2.67636012       2.68556940       0.00000000
Si      -2.66921424      -0.03863988      -2.74443060       0.00000000
Si       0.04578576       2.67636012      -2.74443060       0.00000000
