10
Lattice="10.86 0.0 0.0 0.0 10.86 0.0 0.0 0.0 10.86" Properties=species:S:1:pos:R:3:initial_magmoms:R:1 pbc="T T T"
Si       1.12828884       1.48766796       1.20156126       0.00000000
Si       1.12328238      -0.89761158      -1.69421430       0.00000000
Si      -1.58671116      -1.22733204       1.20156126       0.00000000
Si      -1.58671116       1.48766796      -1.51343874       0.00000000
Si      -0.05916528      -2.45264412       2.64715758       0.00000000
Si       2.50515222      -0.03274290       2.63601522       0.00000000
Si       2.44000308       0.16880784      -2.84150814       0.00000000
Si       2.48578884       2.84516796      -0.15593874       0.00000000
Si      -0.22921116       2.84516796       2.55906126       0.00000000
Si      -2.94421116       0.13016796       2.55906126       0.00000000
