10
Lattice="16.28999089631971 0.0 0.0 0.0 16.28999089631971 0.0 0.0 0.0 34.5300574570662" Properties=species:S:1:pos:R:3:initial_magmoms:R:1 pbc="T T T"
Si       1.31121305       0.38612187      -1.95554184       0.00000000
Si       0.16097126      -2.32932339       0.52237100       0.00000000
Si      -2.36086965       0.44139384       0.03919164       0.00000000
Si       0.56552690       1.57773537       1.88316680       0.00000000
Si      -2.62590795      -0.63724851       2.26161644       0.00000000
Si      -0.54341974       3.51576060       1.04905826       0.00000000
Si       0.04723123      -0.54423261      -3.75100224       0.00000000
Si      -1.57145625      -2.72650617       2.16410350       0.00000000
Si      -2.69486352       2.82418820       0.18684225       0.00000000
Si       3.53571029      -0.44597133      -1.76583360       0.00000000
