10
Lattice="16.28999089631971 0.0 0.0 0.0 16.28999089631971 0.0 0.0 0.0 34.5300574570662" Properties=species:S:1:pos:R:3:initial_magmoms:R:1 pbc="T T T"
Si      -1.80066402       0.04034056       1.54290742       0.00000000
Si       0.86960907       1.90549669       1.11349139       0.00000000
Si       1.47261600      -1.90767370       0.27627514       0.00000000
Si      -1.05562458       1.14045313      -1.86552193       0.00000000
Si      -1.34431596       2.35104448       1.74093741       0.00000000
Si       0.83676843       2.51876632      -2.30660913       0.00000000
Si      -1.02366360      -1.37833437       3.21992966       0.00000000
Si       0.02780703      -3.75653983       0.12258177       0.00000000
Si       1.76914287       3.43999840      -0.37068037       0.00000000
Si      -1.37997477      -0.29421369      -3.76246622       0.00000000
