10
Lattice="16.28999089631971 0.0 0.0 0.0 16.28999089631971 0.0 0.0 0.0 34.5300574570662" Properties=species:S:1:pos:R:3:initial_magmoms:R:1 pbc="T T T"
Si      -0.68963715      -1.86588333       1.36796221       0.00000000
Si      -1.38100104       2.03460145       0.26994478       0.00000000
Si       1.96558398       0.85003501       1.27597408       0.00000000
Si      -0.71229654      -0.79378956      -2.26893681       0.00000000
Si      -1.92174759      -0.42190515       2.77321893       0.00000000
Si       0.96736536       2.53182112      -2.09863447       0.00000000
Si      -3.23660797       0.87679785       1.28252789       0.00000000
Si      -2.44869651      -2.75552910       0.08806890       0.00000000
Si       0.80666451       2.28965398       2.77745577       0.00000000
Si       0.97966431      -2.47086135      -2.75311755       0.00000000
