10
Lattice="16.28999089631971 0.0 0.0 0.0 16.28999089631971 0.0 0.0 0.0 34.5300574570662" Properties=species:S:1:pos:R:3:initial_magmoms:R:1 pbc="T T T"
Si      -0.00922014       1.85515407      -1.42212121       0.00000000
Si       0.93237444       0.92123208       1.93592875       0.00000000
Si      -1.89239301      -1.37831319       0.44108720       0.00000000
Si       1.74710250      -1.26597735      -1.01597845       0.00000000
Si       0.03284064      -0.61326963       3.42010051       0.00000000
Si      -0.83676843      -2.51876632       2.30660913       0.00000000
Si      -2.09569221       1.75962951      -2.60743516       0.00000000
Si       0.51860844       3.79703610      -0.07972995       0.00000000
Si      -2.21674320      -2.81298001      -1.45585710       0.00000000
Si       3.27648915       0.81461403       1.91013479       0.00000000
