10
Lattice="16.28999089631971 0.0 0.0 0.0 16.28999089631971 0.0 0.0 0.0 34.5300574570662" Properties=species:S:1:pos:R:3:initial_magmoms:R:1 pbc="T T T"
Si       0.28070928      -2.32326351      -0.28929298       0.00000000
Si      -1.93422573       0.73510254       1.15565261       0.00000000
Si      -0.13305672       0.55254051      -2.30495168       0.00000000
Si       2.10442365       0.82174905       0.83925352       0.00000000
Si       2.62482399      -2.42988156      -0.31508695       0.00000000
Si       3.07604070      -1.17621945       1.64867304       0.00000000
Si       1.52160003       2.33699598      -2.56962472       0.00000000
Si       3.27266100       1.83493818      -0.98427984       0.00000000
Si      -0.66088530      -1.38934152      -3.64734295       0.00000000
Si      -2.20617099       1.49377671      -2.94907574       0.00000000
