10
Lattice="16.28999089631971 0.0 0.0 0.0 16.28999089631971 0.0 0.0 0.0 34.5300574570662" Properties=species:S:1:pos:R:3:initial_magmoms:R:1 pbc="T T T"
Si       1.80718002      -0.52820325       1.38254974       0.00000000
Si      -0.59403114      -2.25118026      -0.55469115       0.00000000
Si       1.57802859       0.41106186      -1.86610894       0.00000000
Si      -1.69966602       1.67619213       1.17982366       0.00000000
Si       3.28649121       1.24724385       0.88597271       0.00000000
Si       0.60641154       2.40903036      -2.67552847       0.00000000
Si       2.88020232      -2.41554636       0.36004511       0.00000000
Si      -1.45248156      -3.21688404       1.37847519       0.00000000
Si      -3.63698685       1.32828660      -0.15762980       0.00000000
Si      -2.11683663      -2.27048391      -2.31990321       0.00000000
