10
Lattice="16.28999089631971 0.0 0.0 0.0 16.28999089631971 0.0 0.0 0.0 34.5300574570662" Properties=species:S:1:pos:R:3:initial_magmoms:R:1 pbc="T T T"
Si       2.32519388       0.42311809      -0.06281021       0.00000000
Si      -1.39802313       1.79010973      -0.75555261       0.00000000
Si      -0.63833017      -2.11682590      -0.94343076       0.00000000
Si      -0.21905163       0.00987174       2.39980580       0.00000000
Si      -2.30112444      -1.04008066       2.57207636       0.00000000
Si       3.10219429      -0.99555683       1.61421203       0.00000000
Si      -0.53604526       3.72614365       0.32900257       0.00000000
Si      -0.75923846      -1.77147790      -3.27569573       0.00000000
Si       0.79981457      -3.72551227       0.17568903       0.00000000
Si      -3.69123159      -0.76719221       0.69743849       0.00000000
