10
Lattice="16.28999089631971 0.0 0.0 0.0 16.28999089631971 0.0 0.0 0.0 34.5300574570662" Properties=species:S:1:pos:R:3:initial_magmoms:R:1 pbc="T T T"
Si       1.30043070      -1.44288675      -1.28710170       0.00000000
Si      -1.32871014      -1.35045729       1.36857887       0.00000000
Si       1.38562740       1.36638891       1.36795733       0.00000000
Si      -1.37917656       1.08646155      -1.65529591       0.00000000
Si       2.32205805       0.12647556      -2.63340039       0.00000000
Si       0.57127401       1.87743879      -3.05674194       0.00000000
Si      -2.67889050       2.70026298      -0.03272070       0.00000000
Si      -2.66794362      -2.71340901       0.02511718       0.00000000
Si      -2.69061930       0.00604359       2.72578354       0.00000000
Si       0.02430468      -2.70544320       2.72692303       0.00000000
