10
Lattice="16.28999089631971 0.0 0.0 0.0 16.28999089631971 0.0 0.0 0.0 34.5300574570662" Properties=species:S:1:pos:R:3:initial_magmoms:R:1 pbc="T T T"
Si       1.47634641      -1.38355857      -1.27882139       0.00000000
Si      -1.45038015       1.60150248      -1.17357372       0.00000000
Si      -0.41912541      -2.32275852       0.77319748       0.00000000
Si       1.60871895       1.68971283       1.62163599       0.00000000
Si      -2.52910395      -0.03730410      -2.52459750       0.00000000
Si       0.20261502       2.61276939      -2.51389318       0.00000000
Si       0.09047466      -2.96569224      -2.35391533       0.00000000
Si       0.13173723       1.51014816       3.52600426       0.00000000
Si      -2.05074810      -2.21618934       2.44828603       0.00000000
Si       2.94246270       0.03038085      -2.54151724       0.00000000
