10
Lattice="16.28999089631971 0.0 0.0 0.0 16.28999089631971 0.0 0.0 0.0 34.5300574570662" Properties=species:S:1:pos:R:3:initial_magmoms:R:1 pbc="T T T"
Si      -0.12642669      -2.29925205      -0.28449330       0.00000000
Si      -1.75975983       1.06868916       1.18496864       0.00000000
Si      -0.16485480       1.31373963      -1.98941584       0.00000000
Si       2.24367057       0.49433634       0.72047005       0.00000000
Si      -0.68862717       3.15016020       0.82067633       0.00000000
Si       1.74237840       0.79089579       3.00321890       0.00000000
Si       0.94563450       3.30053319      -0.96079939       0.00000000
Si      -2.52553644       1.24985025      -2.22895098       0.00000000
Si      -3.64008195       0.89521695      -0.17579262       0.00000000
Si       1.94668758      -3.24048825       0.35963075       0.00000000
