10
Lattice="16.28999089631971 0.0 0.0 0.0 16.28999089631971 0.0 0.0 0.0 34.5300574570662" Properties=species:S:1:pos:R:3:initial_magmoms:R:1 pbc="T T T"
Si       2.13097635       0.13395593       0.90665623       0.00000000
Si      -0.77700042       1.41867492      -1.67702224       0.00000000
Si      -1.42444647       0.07494377       1.85005245       0.00000000
Si      -0.11583819      -2.08703800      -1.05347811       0.00000000
Si      -3.32124592       1.00542857       0.78559378       0.00000000
Si      -3.10219429       0.99555683      -1.61421203       0.00000000
Si       3.46309110      -0.79384006      -0.78403992       0.00000000
Si       1.00742247      -3.46207690       0.53542337       0.00000000
Si       1.02366360       1.37833437      -3.21992966       0.00000000
Si       2.19641328      -1.37078299       2.75259960       0.00000000
