10
Lattice="16.28999089631971 0.0 0.0 0.0 16.28999089631971 0.0 0.0 0.0 34.5300574570662" Properties=species:S:1:pos:R:3:initial_magmoms:R:1 pbc="T T T"
Si       1.27430154      -1.29412647      -1.49573933       0.00000000
Si       1.39129632       1.29973023       1.40944867       0.00000000
Si      -1.43355258       1.38455226      -1.48538031       0.00000000
Si      -0.73243098      -1.81097559       1.53772791       0.00000000
Si       2.56261248       2.69928558      -0.08891495       0.00000000
Si       2.58382206      -2.70707220      -0.16570984       0.00000000
Si       2.79539658      -0.48532797       2.46900408       0.00000000
Si      -2.76144822      -2.61759123       0.05079374       0.00000000
Si       2.62049085       0.05867658      -2.85404896       0.00000000
Si      -0.09902691      -2.65096944      -2.85387631       0.00000000
