10
Lattice="16.28999089631971 0.0 0.0 0.0 16.28999089631971 0.0 0.0 0.0 34.5300574570662" Properties=species:S:1:pos:R:3:initial_magmoms:R:1 pbc="T T T"
Si      -2.08207281      -1.04995240       0.17227055       0.00000000
Si       1.89679946      -0.93048480       1.06445868       0.00000000
Si      -0.31837665       2.00122813       1.24163250       0.00000000
Si       0.21905163      -0.00987174      -2.39980580       0.00000000
Si       3.32124592      -1.00542857      -0.78559378       0.00000000
Si       2.54424551       0.41324635      -2.46261601       0.00000000
Si      -3.21890304       0.17465323       1.82170326       0.00000000
Si      -2.64609777       2.35701802       1.07461052       0.00000000
Si       2.69360851       0.73608157       2.58478343       0.00000000
Si      -1.17897150       1.78023799      -3.15535841       0.00000000
