10
Lattice="16.28999089631971 0.0 0.0 0.0 16.28999089631971 0.0 0.0 0.0 34.5300574570662" Properties=species:S:1:pos:R:3:initial_magmoms:R:1 pbc="T T T"
Si       0.68264874       0.07591140       2.22722448       0.00000000
Si       0.17453106       2.20578003      -0.78300402       0.00000000
Si       0.84222558      -1.57275063      -1.53945441       0.00000000
Si      -2.28113757      -0.46245681       0.53645927       0.00000000
Si      -1.09214676       1.62883710       2.75363550       0.00000000
Si      -1.15758369       3.13357602       0.90769213       0.00000000
Si      -1.11382875      -1.56484998      -2.96164468       0.00000000
Si       0.60665589      -2.35999746       2.64393345       0.00000000
Si      -3.40439823       0.91258209      -1.05244221       0.00000000
Si      -2.54581749      -2.73663855       0.33811851       0.00000000
