10
Lattice="16.28999089631971 0.0 0.0 0.0 16.28999089631971 0.0 0.0 0.0 34.5300574570662" Properties=species:S:1:pos:R:3:initial_magmoms:R:1 pbc="T T T"
Si      -0.26467992      -2.27418174      -0.19834076       0.00000000
Si      -1.12326066       1.37503890      -1.58890148       0.00000000
Si      -0.53592471       0.50145507       2.27204452       0.00000000
Si       2.28113757       0.46245681      -0.53645927       0.00000000
Si       1.18899081       2.09129391       2.21717623       0.00000000
Si       2.96378631       0.53836821       1.69076521       0.00000000
Si      -0.53932932      -2.51711451      -2.50840290       0.00000000
Si      -1.00742247       3.46207690      -0.53542337       0.00000000
Si      -2.76042195       1.33354827       2.08233628       0.00000000
Si       1.77881913      -3.29328414       0.45652214       0.00000000
