10
Lattice="16.28999089631971 0.0 0.0 0.0 16.28999089631971 0.0 0.0 0.0 34.5300574570662" Properties=species:S:1:pos:R:3:initial_magmoms:R:1 pbc="T T T"
Si      -1.33263603      -1.34897231      -1.37574732       0.00000000
Si       1.27707084      -1.37192492       1.44708646       0.00000000
Si       1.38075669       1.36516064      -1.37056781       0.00000000
Si      -1.55616741       1.12061516       1.48689964       0.00000000
Si       2.34250200       0.33877661       2.74610794       0.00000000
Si      -0.12831633       2.72884541       2.55584722       0.00000000
Si      -2.69809641      -2.70073280      -0.01281066       0.00000000
Si      -2.70638802       2.70022388       0.01084244       0.00000000
Si       2.72095128      -2.69809382      -0.00773474       0.00000000
Si      -2.69249265       0.00650134      -2.73340088       0.00000000
