10
Lattice="16.28999089631971 0.0 0.0 0.0 16.28999089631971 0.0 0.0 0.0 34.5300574570662" Properties=species:S:1:pos:R:3:initial_magmoms:R:1 pbc="T T T"
Si       1.42785108       1.60823025       1.06894759       0.00000000
Si       1.55616741      -1.12061516      -1.48689964       0.00000000
Si      -1.15022061       1.57960872      -1.47605719       0.00000000
Si      -1.43847216      -1.41261667       1.70671810       0.00000000
Si      -2.54993886      -2.54786093      -0.09778918       0.00000000
Si       2.83323825      -2.49254009      -0.03981318       0.00000000
Si       0.22353138      -2.46958748      -2.86264695       0.00000000
Si      -2.49124599       0.24620706      -2.86257789       0.00000000
Si      -2.64086964       2.75731056      -0.01460622       0.00000000
Si       0.17731665       3.02775714       2.43374887       0.00000000
