10
Lattice="16.28999089631971 0.0 0.0 0.0 16.28999089631971 0.0 0.0 0.0 34.5300574570662" Properties=species:S:1:pos:R:3:initial_magmoms:R:1 pbc="T T T"
Si       0.62418393      -1.84289747       1.27985729       0.00000000
Si       2.08047735       0.74096694      -0.75123635       0.00000000
Si      -1.07302230       1.88734311       1.02250463       0.00000000
Si      -1.46668644      -0.96884775      -1.63810684       0.00000000
Si       1.06095141       2.79932247      -1.54781069       0.00000000
Si      -3.47423346       0.16436610      -0.91473626       0.00000000
Si       0.69002811      -3.53754359      -0.27786353       0.00000000
Si       3.43233558       0.22367799       1.28669425       0.00000000
Si       2.63497266      -0.76136202      -2.44970177       0.00000000
Si       0.40628889       3.66279021       0.52592760       0.00000000
