10
Lattice="16.28999089631971 0.0 0.0 0.0 16.28999089631971 0.0 0.0 0.0 34.5300574570662" Properties=species:S:1:pos:R:3:initial_magmoms:R:1 pbc="T T T"
Si       1.61507205       0.65569694      -1.47709309       0.00000000
Si      -1.95849783       1.26428482       0.06077294       0.00000000
Si       1.17866295       1.17309340       1.74653128       0.00000000
Si      -0.04790889      -2.40998074      -0.25282922       0.00000000
Si      -3.22473582      -0.41817244       1.06608159       0.00000000
Si      -0.35899902      -2.90524561       2.05723291       0.00000000
Si       1.68091623      -1.03894918      -3.03481392       0.00000000
Si      -1.68443487       2.95888465       1.62950885       0.00000000
Si       1.75954806      -2.95118341      -1.67488137       0.00000000
Si       0.99088812       2.49859441      -2.75695039       0.00000000
