10
Lattice="16.28999089631971 0.0 0.0 0.0 16.28999089631971 0.0 0.0 0.0 34.5300574570662" Properties=species:S:1:pos:R:3:initial_magmoms:R:1 pbc="T T T"
Si      -1.12054023       1.74054577       1.15762082       0.00000000
Si       1.73073105      -1.19785161       1.12357417       0.00000000
Si       0.84455505       1.88322988      -1.20009282       0.00000000
Si      -1.05280641      -1.80721164      -1.61321066       0.00000000
Si      -2.17774494       0.11013832       2.46891917       0.00000000
Si       2.49212565      -2.22179214      -0.93535072       0.00000000
Si       2.29825836       0.88321936      -2.73982347       0.00000000
Si      -3.17596356       1.79192444      -0.90568938       0.00000000
Si       0.58052673      -2.75517561       2.52085932       0.00000000
Si       0.56819520       2.87836969       2.61532670       0.00000000
