10
Lattice="16.28999089631971 0.0 0.0 0.0 16.28999089631971 0.0 0.0 0.0 34.5300574570662" Properties=species:S:1:pos:R:3:initial_magmoms:R:1 pbc="T T T"
Si      -1.26597735       1.34092764       1.41764611       0.00000000
Si       1.44694296      -1.38833154       1.36570597       0.00000000
Si      -1.88138097      -0.94618836      -1.21140383       0.00000000
Si       1.31452155       1.51218441      -1.45447386       0.00000000
Si      -0.52642764       2.50489701      -2.69344754       0.00000000
Si      -2.70770751       2.59455717       0.10104536       0.00000000
Si      -2.62669734      -0.02508660       2.75430884       0.00000000
Si       0.09265752       2.68750791       2.75513756       0.00000000
Si       0.09093078      -2.73896802       2.75268592       0.00000000
Si       2.85047307      -2.67498090      -0.17102402       0.00000000
