10
Lattice="16.28999089631971 0.0 0.0 0.0 16.28999089631971 0.0 0.0 0.0 34.5300574570662" Properties=species:S:1:pos:R:3:initial_magmoms:R:1 pbc="T T T"
Si      -1.38587175      -1.58213367      -1.07509394       0.00000000
Si       1.43231454      -1.31168709       1.37326115       0.00000000
Si      -1.47634641       1.38355857       1.27882139       0.00000000
Si       1.46611629       1.41393942      -1.26269585       0.00000000
Si      -1.89547182      -0.93919995       2.05201887       0.00000000
Si      -2.59354719      -0.04256577      -2.54455589       0.00000000
Si       0.09091449       2.69925300      -2.59403749       0.00000000
Si       0.10477728      -2.75983551      -2.53654491       0.00000000
Si      -0.01265733      -2.12747400       3.12065569       0.00000000
Si       3.34739952       0.11277567       1.77760835       0.00000000
