10
Lattice="16.28999089631971 0.0 0.0 0.0 16.28999089631971 0.0 0.0 0.0 34.5300574570662" Properties=species:S:1:pos:R:3:initial_magmoms:R:1 pbc="T T T"
Si       1.75863582       0.67935816      -1.51583584       0.00000000
Si       0.80008335       1.74205260       1.50575306       0.00000000
Si       0.24733107      -2.38177719       0.75876391       0.00000000
Si      -1.76622696       0.15913701      -1.82798773       0.00000000
Si      -1.20881574      -2.18662299      -2.29859815       0.00000000
Si      -0.55486998      -1.70903277       2.98779677       0.00000000
Si       0.93164139       2.80448640      -2.02660473       0.00000000
Si       0.84680307      -3.19218840      -1.48855708       0.00000000
Si       0.25477560       3.66748173       0.18200803       0.00000000
Si      -2.30097879       0.12272886       2.92883148       0.00000000
