10
Lattice="16.28999089631971 0.0 0.0 0.0 16.28999089631971 0.0 0.0 0.0 34.5300574570662" Properties=species:S:1:pos:R:3:initial_magmoms:R:1 pbc="T T T"
Si       1.35019665       1.36098063       1.37796070       0.00000000
Si      -1.35702216      -1.36029645       1.37675214       0.00000000
Si       1.60635690      -1.15396731      -1.30531287       0.00000000
Si      -1.29000021       1.39502673      -1.43377166       0.00000000
Si       0.41695884       2.54497041      -2.72581604       0.00000000
Si      -2.70944003       2.71741635      -0.00601859       0.00000000
Si      -2.72182184      -2.70537804      -0.02157094       0.00000000
Si       2.73404844       2.70951570       0.03636362       0.00000000
Si       2.71303434      -0.00053757       2.73595955       0.00000000
Si      -0.00255753      -2.71370223       2.73772059       0.00000000
