10
Lattice="16.28999089631971 0.0 0.0 0.0 16.28999089631971 0.0 0.0 0.0 34.5300574570662" Properties=species:S:1:pos:R:3:initial_magmoms:R:1 pbc="T T T"
Si      -1.35301482       1.35498591      -1.35834416       0.00000000
Si      -1.35625653      -1.35855342       1.35627235       0.00000000
Si       1.35896067       1.35622395       1.35644501       0.00000000
Si       1.35713619      -1.35708732      -1.36076126       0.00000000
Si      -2.69224830      -0.00796581      -2.70180586       0.00000000
Si      -0.02806767      -2.71505430      -2.69706488       0.00000000
Si       2.71785618       0.00892692      -2.69742399       0.00000000
Si      -2.71492398       2.71148679      -0.00113949       0.00000000
Si      -2.71393029      -0.00117288       2.71361514       0.00000000
Si       0.00109143       2.71402803       2.71364967       0.00000000
