10
Lattice="16.28999089631971 0.0 0.0 0.0 16.28999089631971 0.0 0.0 0.0 34.5300574570662" Properties=species:S:1:pos:R:3:initial_magmoms:R:1 pbc="T T T"
Si      -1.37520180       1.28531358      -1.33134164       0.00000000
Si       1.38005622      -1.42747641      -1.29394557       0.00000000
Si       0.74539782       1.71993078       1.48064969       0.00000000
Si      -1.46611629      -1.41393942       1.26269585       0.00000000
Si       2.62172889       2.55466296       0.13325157       0.00000000
Si       0.00641826       2.63974563      -2.66088771       0.00000000
Si      -2.73984768       2.58238854       0.02762406       0.00000000
Si      -2.69961138      -0.07934859      -2.66078412       0.00000000
Si      -0.03380175      -2.72562651       2.63595700       0.00000000
Si       1.88128323      -1.30116375       3.04030420       0.00000000
