10
Lattice="16.28999089631971 0.0 0.0 0.0 16.28999089631971 0.0 0.0 0.0 34.5300574570662" Properties=species:S:1:pos:R:3:initial_magmoms:R:1 pbc="T T T"
Si      -1.76766048      -1.04360256      -1.16511385       0.00000000
Si       1.05015114       1.81773594      -1.08714494       0.00000000
Si      -1.55608596       1.17814167       1.46960007       0.00000000
Si       1.71758502      -1.90606032       0.28791178       0.00000000
Si       2.34514098       0.37717866      -2.48091695       0.00000000
Si      -0.40301460      -2.34067752      -2.52407955       0.00000000
Si      -0.36155655      -1.96665912       2.97041532       0.00000000
Si       2.38218444       3.02427108       0.57886221       0.00000000
Si       3.59391609      -1.07132814      -1.05948635       0.00000000
Si      -0.47985453       1.84917564       3.42372617       0.00000000
