10
Lattice="16.28999089631971 0.0 0.0 0.0 16.28999089631971 0.0 0.0 0.0 34.5300574570662" Properties=species:S:1:pos:R:3:initial_magmoms:R:1 pbc="T T T"
Si      -2.09637639      -0.82896552       0.71007650       0.00000000
Si       0.00513135       2.23658442      -0.80013094       0.00000000
Si       0.81036234      -1.54559520      -1.69142128       0.00000000
Si       1.41027417      -0.04183272       1.97943665       0.00000000
Si       2.27159163       2.19382317      -1.73693192       0.00000000
Si      -0.51513867       3.54431762       1.17219252       0.00000000
Si      -2.93860197       0.74378511       2.24953091       0.00000000
Si      -1.77551226      -3.03355638       1.57895682       0.00000000
Si       3.67499142       0.43976484       1.39587835       0.00000000
Si       1.84160079      -2.21076477       2.75477499       0.00000000
