10
Lattice="16.28999089631971 0.0 0.0 0.0 16.28999089631971 0.0 0.0 0.0 34.5300574570662" Properties=species:S:1:pos:R:3:initial_magmoms:R:1 pbc="T T T"
Si       1.25245665       1.55489679      -1.34332500       0.00000000
Si      -1.40353011       1.28664936       1.53672999       0.00000000
Si       1.30756572      -1.41587793       1.52635370       0.00000000
Si      -1.30903182      -1.42951266      -1.57022213       0.00000000
Si      -1.63633050       0.53929674      -2.99237787       0.00000000
Si       2.73938734       2.68452684       0.11415298       0.00000000
Si      -2.75589333      -2.72654038       0.05510310       0.00000000
Si      -2.85047307       2.67498090       0.17102402       0.00000000
Si       2.71662858      -2.84722321       0.07642542       0.00000000
Si      -0.04810437       2.64948705       2.92160361       0.00000000
