10
Lattice="16.28999089631971 0.0 0.0 0.0 16.28999089631971 0.0 0.0 0.0 34.5300574570662" Properties=species:S:1:pos:R:3:initial_magmoms:R:1 pbc="T T T"
Si      -1.03729833       1.74972519       1.21656366       0.00000000
Si      -1.91508498      -1.42446276      -0.40434720       0.00000000
Si       1.64595789      -1.59777207       0.85931549       0.00000000
Si       2.11388814      -0.08089614      -1.42250104       0.00000000
Si      -0.66455055      -2.84398965      -1.76914848       0.00000000
Si       0.90911232      -1.47554820      -2.95335746       0.00000000
Si       0.82420884       3.16210077       1.46290123       0.00000000
Si      -1.13588541       3.02109453      -1.55965451       0.00000000
Si       0.71443053      -3.71281680      -0.04029660       0.00000000
Si      -3.34739952      -0.11277567      -1.77760835       0.00000000
