10
Lattice="16.28999089631971 0.0 0.0 0.0 16.28999089631971 0.0 0.0 0.0 34.5300574570662" Properties=species:S:1:pos:R:3:initial_magmoms:R:1 pbc="T T T"
Si       0.40360104       2.19383946       0.86508201       0.00000000
Si       2.11244226      -0.87462639       0.80330771       0.00000000
Si      -1.79677071      -0.77877603       1.44390969       0.00000000
Si       0.47120454      -0.96154983      -2.23851582       0.00000000
Si      -1.29919266       1.52257743      -1.99576938       0.00000000
Si       2.37714498       0.36170316      -2.65418888       0.00000000
Si       3.64075703       0.19054413      -0.63908266       0.00000000
Si      -1.50625485      -0.40523004      -3.37507329       0.00000000
Si       1.31747004       1.86377148       2.97469705       0.00000000
Si      -3.64102677      -0.89474454      -0.06560715       0.00000000
