10
Lattice="16.28999089631971 0.0 0.0 0.0 16.28999089631971 0.0 0.0 0.0 34.5300574570662" Properties=species:S:1:pos:R:3:initial_magmoms:R:1 pbc="T T T"
Si       1.20124229      -1.37829690       1.54280383       0.00000000
Si      -1.65465675      -1.19804805      -1.28255206       0.00000000
Si       1.68144795       1.06393248      -1.49422143       0.00000000
Si      -1.50904044       1.32768387       1.54002071       0.00000000
Si       2.49404691       2.65072509       0.10731257       0.00000000
Si       2.62068211      -2.70068652       0.11505076       0.00000000
Si      -0.30564927      -2.51035416      -2.90308309       0.00000000
Si       2.55028488      -0.02396259       2.92364088       0.00000000
Si       0.56236338       1.74944826      -3.47755998       0.00000000
Si      -2.99719710       2.61324180       0.17434581       0.00000000
