10
Lattice="16.28999089631971 0.0 0.0 0.0 16.28999089631971 0.0 0.0 0.0 34.5300574570662" Properties=species:S:1:pos:R:3:initial_magmoms:R:1 pbc="T T T"
Si      -1.35692442       1.35764118       1.35789527       0.00000000
Si      -1.35915615      -1.35759231      -1.35685937       0.00000000
Si       1.35795069      -1.35775521       1.35799886       0.00000000
Si       1.35812176       1.35964485      -1.35692843       0.00000000
Si      -2.71156824      -0.00096111      -2.71554883       0.00000000
Si      -2.71319724      -0.00097740       2.71544524       0.00000000
Si      -2.71420722      -2.71451673       0.00034530       0.00000000
Si       0.00109143      -2.71394658       2.71530712       0.00000000
Si      -2.71500543       2.71508688       0.00034530       0.00000000
Si       2.71450926      -0.00219915       2.71568695       0.00000000
