10
Lattice="16.28999089631971 0.0 0.0 0.0 16.28999089631971 0.0 0.0 0.0 34.5300574570662" Properties=species:S:1:pos:R:3:initial_magmoms:R:1 pbc="T T T"
Si       1.35655857       1.35555606       1.35768809       0.00000000
Si      -1.35685926      -1.35619137       1.35730826       0.00000000
Si       1.35756040      -1.35697329      -1.35796433       0.00000000
Si      -1.35795069       1.35775521      -1.35799886       0.00000000
Si      -2.71407690       0.00057015       2.71047290       0.00000000
Si       2.71113560       0.00351864       2.71717174       0.00000000
Si      -2.71461447      -2.71428867       0.00051795       0.00000000
Si       2.71476827      -2.71451673      -0.00020718       0.00000000
Si      -2.71487511       2.71539639      -0.00010359       0.00000000
Si       2.71496375       2.71555929       0.00020718       0.00000000
