10
Lattice="16.28999089631971 0.0 0.0 0.0 16.28999089631971 0.0 0.0 0.0 34.5300574570662" Properties=species:S:1:pos:R:3:initial_magmoms:R:1 pbc="T T T"
Si      -1.86150717      -1.41237558      -0.24633757       0.00000000
Si       1.00361061      -0.66689631       2.08989837       0.00000000
Si      -1.07303859       2.16909495       0.18380360       0.00000000
Si       3.26826011      -0.42516900       1.33804047       0.00000000
Si      -0.82420884      -3.16210077      -1.46290123       0.00000000
Si       0.18878481       3.15646443      -1.67933575       0.00000000
Si      -1.96009425      -0.14100624      -3.02255574       0.00000000
Si      -0.04197933       1.05124257       3.45093587       0.00000000
Si      -0.19258038       3.04921107       2.17304679       0.00000000
Si      -3.19841118       1.63916496       1.15765535       0.00000000
