10
Lattice="16.28999089631971 0.0 0.0 0.0 16.28999089631971 0.0 0.0 0.0 34.5300574570662" Properties=species:S:1:pos:R:3:initial_magmoms:R:1 pbc="T T T"
Si      -1.04765877      -1.80621891       1.06632330       0.00000000
Si       2.22171232      -0.66839499       0.39212355       0.00000000
Si      -0.78393996       1.96125084       1.04235943       0.00000000
Si      -1.17815796      -0.11409516      -2.08727408       0.00000000
Si      -2.61733059      -0.68927877       2.40125607       0.00000000
Si       2.43678756      -0.11616399       2.71848388       0.00000000
Si      -3.04865721       1.47965328       1.62591772       0.00000000
Si      -0.50955120       3.75953652      -0.40234445       0.00000000
Si      -0.13256802      -1.83223404      -3.44831158       0.00000000
Si      -1.25472096      -3.73402638      -0.31298062       0.00000000
