10
Lattice="16.28999089631971 0.0 0.0 0.0 16.28999089631971 0.0 0.0 0.0 34.5300574570662" Properties=species:S:1:pos:R:3:initial_magmoms:R:1 pbc="T T T"
Si      -1.35013149      -1.34548884       1.37212166       0.00000000
Si       1.35892809      -1.35288450      -1.35761903       0.00000000
Si      -1.35666378       1.35811359      -1.35796433       0.00000000
Si       1.34291502       1.36923966       1.36787446       0.00000000
Si       2.65383648      -0.01764207       2.71793140       0.00000000
Si      -2.64512133       0.09506844       2.76589368       0.00000000
Si      -2.71666701      -2.70891297      -0.00058701       0.00000000
Si       0.00257382      -2.71221984      -2.71582507       0.00000000
Si      -2.71252935       0.00265527      -2.71592866       0.00000000
Si      -2.71067229       2.71836117      -0.00013812       0.00000000
