10
Lattice="16.28999089631971 0.0 0.0 0.0 16.28999089631971 0.0 0.0 0.0 34.5300574570662" Properties=species:S:1:pos:R:3:initial_magmoms:R:1 pbc="T T T"
Si       1.31092146      -1.38688173       1.35005694       0.00000000
Si      -1.34291502      -1.36923966      -1.36787446       0.00000000
Si       1.37502261       1.35107631      -1.36493940       0.00000000
Si      -1.44388044       1.32616890       1.45482119       0.00000000
Si       2.44289631       0.23382666       2.64714474       0.00000000
Si      -2.69304651      -2.71472850       0.00424720       0.00000000
Si      -2.72095128       2.69809382       0.00773474       0.00000000
Si      -2.69957880      -0.01112607      -2.72583879       0.00000000
Si       0.01687644       2.70384908      -2.72552802       0.00000000
Si       2.72074995       2.71074138       0.01122227       0.00000000
