10
Lattice="16.28999089631971 0.0 0.0 0.0 16.28999089631971 0.0 0.0 0.0 34.5300574570662" Properties=species:S:1:pos:R:3:initial_magmoms:R:1 pbc="T T T"
Si      -1.27707084       1.37192492      -1.44708646       0.00000000
Si       1.06543116       1.71070154       1.29902149       0.00000000
Si       1.44388044      -1.32616890      -1.45482119       0.00000000
Si      -1.21212261      -1.39380498       1.60920517       0.00000000
Si      -2.54415591      -2.60034012      -0.05680198       0.00000000
Si      -2.83323825       2.49254009       0.03981318       0.00000000
Si      -2.60970687       0.02295261      -2.82283377       0.00000000
Si       2.75480190      -2.71305063      -0.10476425       0.00000000
Si       0.10096542      -2.69540856      -2.82269565       0.00000000
Si       0.10368585       2.73708557      -2.81765426       0.00000000
