10
Lattice="16.28999089631971 0.0 0.0 0.0 16.28999089631971 0.0 0.0 0.0 34.5300574570662" Properties=species:S:1:pos:R:3:initial_magmoms:R:1 pbc="T T T"
Si      -1.24291953       2.01305304       0.21173843       0.00000000
Si      -0.86197788      -1.93603392      -1.08455518       0.00000000
Si       1.79341334       0.19324827      -1.60209197       0.00000000
Si       0.96609963       0.05981688       2.21030474       0.00000000
Si       0.66302092       3.33630603      -0.20393463       0.00000000
Si       3.31758719      -0.99232164      -0.19378279       0.00000000
Si      -0.00138302      -1.71504378       3.31243573       0.00000000
Si       0.53604526      -3.72614365      -0.32900257       0.00000000
Si       2.16044333       2.51286282      -1.81921709       0.00000000
Si       3.29197931      -0.03676653       1.91061821       0.00000000
