10
Lattice="16.28999089631971 0.0 0.0 0.0 16.28999089631971 0.0 0.0 0.0 34.5300574570662" Properties=species:S:1:pos:R:3:initial_magmoms:R:1 pbc="T T T"
Si       0.27438876       1.79828568      -1.44470388       0.00000000
Si       0.78393996      -1.96125084      -1.04235943       0.00000000
Si       1.13653701       0.90872136       1.86072225       0.00000000
Si      -2.26471725      -0.48159756       0.58355830       0.00000000
Si      -1.83339063      -2.65052961       1.35889664       0.00000000
Si      -2.24318187       0.99263115       2.51026752       0.00000000
Si      -0.40558842       3.53200499      -0.06208508       0.00000000
Si      -0.24115716       0.27942237       3.61992607       0.00000000
Si       3.37085616       0.24475725       1.67698771       0.00000000
Si      -0.39421800      -2.07534600      -3.12963351       0.00000000
