10
Lattice="16.28999089631971 0.0 0.0 0.0 16.28999089631971 0.0 0.0 0.0 34.5300574570662" Properties=species:S:1:pos:R:3:initial_magmoms:R:1 pbc="T T T"
Si       1.35692768      -1.35630444       1.35741185       0.00000000
Si       1.35744896       1.35781222      -1.35641048       0.00000000
Si      -1.35718899      -1.35794973      -1.35758450       0.00000000
Si      -1.35746193       1.35843125       1.35837869       0.00000000
Si       2.70992621       0.00311302      -2.71358061       0.00000000
Si       2.71342856      -2.71366869       0.00062154       0.00000000
Si       0.00298433       2.71121801      -2.71737892       0.00000000
Si      -2.71548177      -2.71384788       0.00000000       0.00000000
Si       0.00048055      -2.71472754       2.71475463       0.00000000
Si       2.71473176       0.00119080       2.71530712       0.00000000
