10
Lattice="16.28999089631971 0.0 0.0 0.0 16.28999089631971 0.0 0.0 0.0 34.5300574570662" Properties=species:S:1:pos:R:3:initial_magmoms:R:1 pbc="T T T"
Si       1.35976214      -1.35381303       1.36179717       0.00000000
Si      -1.35711566       1.36184400       1.36203888       0.00000000
Si      -1.34904258      -1.35433431      -1.38083705       0.00000000
Si       1.36246628       1.37386602      -1.37519484       0.00000000
Si       2.71059410      -2.71077003       0.00314224       0.00000000
Si      -2.71709448      -2.71176372      -0.00113949       0.00000000
Si       0.00027367      -2.71252935       2.71900183       0.00000000
Si       2.71342856       2.71971324       0.00165744       0.00000000
Si      -2.71523742       0.00219915       2.71896730       0.00000000
Si       2.71500869       0.00228060       2.71986509       0.00000000
