10
Lattice="16.28999089631971 0.0 0.0 0.0 16.28999089631971 0.0 0.0 0.0 34.5300574570662" Properties=species:S:1:pos:R:3:initial_magmoms:R:1 pbc="T T T"
Si       1.35721829       1.35604476       1.35761903       0.00000000
Si      -1.35812176      -1.35964485       1.35692843       0.00000000
Si      -1.36098880       1.35951453      -1.35951818       0.00000000
Si       1.35711566      -1.36184400      -1.36203888       0.00000000
Si      -2.71475296       2.71207323       0.00186462       0.00000000
Si       0.00020300       2.71283886       2.71465104       0.00000000
Si       2.71422253       2.71362078      -0.00041436       0.00000000
Si      -2.71504618      -0.00200367       2.71482369       0.00000000
Si       2.71479268      -0.00184077       2.71513447       0.00000000
Si      -0.00792511       2.70215262      -2.72824554       0.00000000
