10
Lattice="16.28999089631971 0.0 0.0 0.0 16.28999089631971 0.0 0.0 0.0 34.5300574570662" Properties=species:S:1:pos:R:3:initial_magmoms:R:1 pbc="T T T"
Si       1.88032212       0.17347221       1.36076126       0.00000000
Si       1.11454551       0.35463330      -2.05315836       0.00000000
Si      -0.26408696      -2.39524902       0.04447474       0.00000000
Si      -1.62144863       1.78232148       0.22396208       0.00000000
Si       0.59729566       2.60620452      -2.18910328       0.00000000
Si      -1.78550522       2.58818778      -1.91106710       0.00000000
Si      -2.52873647      -2.63697633       0.79633263       0.00000000
Si       3.64008195      -0.89521695       0.17579262       0.00000000
Si       2.95145478       2.25494325       0.99646895       0.00000000
Si       3.47522715       0.41852268      -1.81362322       0.00000000
