10
Lattice="16.28999089631971 0.0 0.0 0.0 16.28999089631971 0.0 0.0 0.0 34.5300574570662" Properties=species:S:1:pos:R:3:initial_magmoms:R:1 pbc="T T T"
Si      -1.77701746      -1.13598315       0.99284330       0.00000000
Si       0.27776079       0.51062634      -2.28316321       0.00000000
Si      -0.69721200       2.06734761       1.05924463       0.00000000
Si       2.07326088      -1.18188837       0.52478811       0.00000000
Si       1.48932954       2.71026504       1.44428952       0.00000000
Si       2.65663836       2.41909758      -0.59958025       0.00000000
Si      -1.56194222      -0.58375215       3.31920363       0.00000000
Si       2.34791028      -0.93895560       2.83485024       0.00000000
Si       3.77989902       0.23283297      -0.46491295       0.00000000
Si      -1.37005090      -3.43468134       1.00862354       0.00000000
