10
Lattice="16.28999089631971 0.0 0.0 0.0 16.28999089631971 0.0 0.0 0.0 34.5300574570662" Properties=species:S:1:pos:R:3:initial_magmoms:R:1 pbc="T T T"
Si       1.35773892       1.35702868      -1.35765356       0.00000000
Si      -1.35780408      -1.35749524      -1.35789527       0.00000000
Si       1.35741312      -1.35684364       1.36290213       0.00000000
Si      -1.36060596       1.35970024       1.36158999       0.00000000
Si       2.71396287       2.71243813       0.00020718       0.00000000
Si      -0.00130320      -2.71485949      -2.71468557       0.00000000
Si      -2.71447112       2.71538662       0.00051795       0.00000000
Si      -2.71473176      -0.00119080      -2.71530712       0.00000000
Si       0.00019548       2.71432777      -2.71575601       0.00000000
Si       2.71546155      -0.00040562      -2.71468557       0.00000000
