10
Lattice="16.28999089631971 0.0 0.0 0.0 16.28999089631971 0.0 0.0 0.0 34.5300574570662" Properties=species:S:1:pos:R:3:initial_magmoms:R:1 pbc="T T T"
Si      -1.07113266      -2.08147104       0.36429231       0.00000000
Si      -1.58379525       1.50394167      -0.99747033       0.00000000
Si       1.63426167       0.15037299      -1.78147572       0.00000000
Si       1.30774491      -0.17299980       2.04787526       0.00000000
Si       0.68862717      -3.15016020      -0.82067633       0.00000000
Si       0.52377237      -1.83642057      -2.81009218       0.00000000
Si      -0.10003689       3.28932634      -1.83717273       0.00000000
Si       3.70247265      -0.38845134      -0.71135411       0.00000000
Si      -2.95145478      -2.25494325      -0.99646895       0.00000000
Si      -3.60515847       1.42928460       0.25531539       0.00000000
