10
Lattice="16.28999089631971 0.0 0.0 0.0 16.28999089631971 0.0 0.0 0.0 34.5300574570662" Properties=species:S:1:pos:R:3:initial_magmoms:R:1 pbc="T T T"
Si      -2.02136322      -0.07465707       1.25278571       0.00000000
Si       1.58379525      -1.50394167       0.99747033       0.00000000
Si       1.48375836       1.78538467      -0.83970241       0.00000000
Si      -0.77036387      -1.15268040      -2.18810190       0.00000000
Si       3.21805692      -1.35356868      -0.78400539       0.00000000
Si      -2.98910816      -1.97656344       0.22496345       0.00000000
Si       1.80810855       3.22005149       1.05724189       0.00000000
Si      -3.15316475      -1.17069714      -1.91006573       0.00000000
Si       0.51266259      -3.58541271       1.36176264       0.00000000
Si      -3.40422623       1.77130522       0.56988439       0.00000000
