10
Lattice="16.28999089631971 0.0 0.0 0.0 16.28999089631971 0.0 0.0 0.0 34.24959146834617" Properties=species:S:1:pos:R:3:initial_magmoms:R:1 pbc="T T T"
Si       2.03497938       0.82784151      -0.65146184       0.00000000
Si       0.65148597      -1.71308898       1.45451246       0.00000000
Si      -0.95915520       1.90987774       0.98056635       0.00000000
Si      -0.73982664      -0.66145545      -2.14604635       0.00000000
Si      -2.74951254      -1.55597193      -1.35621608       0.00000000
Si       2.49033375      -2.60690499       0.07295167       0.00000000
Si       1.48053294       2.35819971      -2.33390547       0.00000000
Si       3.15982017      -0.97704162      -1.59997056       0.00000000
Si      -0.33394500       1.29811752      -3.46263563       0.00000000
Si      -1.16165619      -3.26769255       1.49811222       0.00000000
