10
Lattice="16.28999089631971 0.0 0.0 0.0 16.28999089631971 0.0 0.0 0.0 34.24959146834617" Properties=species:S:1:pos:R:3:initial_magmoms:R:1 pbc="T T T"
Si      -1.12333885       1.22663278       1.62161631       0.00000000
Si       1.00760166      -1.94025303       0.84099919       0.00000000
Si       1.30631139       1.04238800      -1.64182358       0.00000000
Si      -2.17498704      -0.25296741      -0.89144886       0.00000000
Si       2.52332100      -2.35033749      -0.94278903       0.00000000
Si       0.11349243       0.43921654      -3.56195950       0.00000000
Si       3.35310102      -0.05362668      -1.29819724       0.00000000
Si      -3.42087461       0.72687187       0.94981020       0.00000000
Si      -0.76264893      -3.49158231       0.98868351       0.00000000
Si      -2.16597704       0.13727583      -3.15976633       0.00000000
