10
Lattice="16.28999089631971 0.0 0.0 0.0 16.28999089631971 0.0 0.0 0.0 34.24959146834617" Properties=species:S:1:pos:R:3:initial_magmoms:R:1 pbc="T T T"
Si      -1.44317997       1.24718684       1.35094164       0.00000000
Si      -1.10912094      -1.73977104      -1.19310437       0.00000000
Si       1.31725827      -1.47898443       1.34398897       0.00000000
Si       1.17309177       1.55453026      -1.43814941       0.00000000
Si      -0.07099182       2.58847286       2.72589911       0.00000000
Si       2.64627792      -0.12884413       2.72850208       0.00000000
Si      -2.86966269       2.60448592      -0.19343153       0.00000000
Si      -2.78176185      -0.12779016       2.72798833       0.00000000
Si       0.71110737      -3.56153061      -1.49558601       0.00000000
Si       2.81597085       2.74417267      -0.15414722       0.00000000
