10
Lattice="16.28999089631971 0.0 0.0 0.0 16.28999089631971 0.0 0.0 0.0 34.24959146834617" Properties=species:S:1:pos:R:3:initial_magmoms:R:1 pbc="T T T"
Si       1.35495333      -1.35165298      -1.35977804       0.00000000
Si      -1.35760860      -1.35019665       1.36936793       0.00000000
Si      -1.35975888       1.36168110      -1.35878480       0.00000000
Si       1.36982610       1.35967743       1.38166354       0.00000000
Si       2.70858717      -2.70863311       0.00445245       0.00000000
Si      -0.00252495      -2.71037768      -2.71619962       0.00000000
Si      -2.71502172      -2.71308671      -0.00246597       0.00000000
Si       2.71241532       0.00514764      -2.71609687       0.00000000
Si       2.71098180       2.71862181      -0.00071924       0.00000000
Si      -2.71694394       0.00421911      -2.71633662       0.00000000
