10
Lattice="16.28999089631971 0.0 0.0 0.0 16.28999089631971 0.0 0.0 0.0 34.24959146834617" Properties=species:S:1:pos:R:3:initial_magmoms:R:1 pbc="T T T"
Si       2.26075878      -0.55782336      -0.49250940       0.00000000
Si      -0.21838374       2.39473914       0.45367034       0.00000000
Si      -0.15765462      -0.64296630       2.36051741       0.00000000
Si      -1.12814766      -1.45119043      -1.63144595       0.00000000
Si       1.75140306       0.66718464       3.15993757       0.00000000
Si       1.67420475       2.70457494       1.86530229       0.00000000
Si       2.17109862      -2.88863632      -0.95412565       0.00000000
Si      -3.17493729      -0.35517576      -1.97507229       0.00000000
Si       2.70855459       0.48587694      -2.60444314       0.00000000
Si      -2.20499811       2.54402070       1.87725541       0.00000000
