10
Lattice="16.28999089631971 0.0 0.0 0.0 16.28999089631971 0.0 0.0 0.0 34.24959146834617" Properties=species:S:1:pos:R:3:initial_magmoms:R:1 pbc="T T T"
Si      -1.65102408       0.36887076      -1.64655003       0.00000000
Si       1.98661437      -0.14928156      -1.42358506       0.00000000
Si      -0.01718595       1.44591669       2.05686037       0.00000000
Si      -1.60267536      -1.83399336       1.17441915       0.00000000
Si      -1.53769455       2.66913279      -2.08597253       0.00000000
Si       2.04734349      -3.18698700       0.48326201       0.00000000
Si       2.20499811      -2.54402070      -1.87725541       0.00000000
Si      -3.75573118      -0.42893199      -0.82068917       0.00000000
Si       3.87920286       0.16055424      -0.01195311       0.00000000
Si      -0.04245174      -3.57622189       1.54780840       0.00000000
