10
Lattice="16.28999089631971 0.0 0.0 0.0 16.28999089631971 0.0 0.0 0.0 34.24959146834617" Properties=species:S:1:pos:R:3:initial_magmoms:R:1 pbc="T T T"
Si      -1.35593073       1.35687555       1.35820256       0.00000000
Si       1.35739683       1.35772263      -1.35751757       0.00000000
Si      -1.35809730      -1.35705474      -1.35762031       0.00000000
Si       1.35827649      -1.35684297       1.36159327       0.00000000
Si      -2.71447763      -2.71437012      -0.00089049       0.00000000
Si      -2.71439618      -0.00032580      -2.71486388       0.00000000
Si       0.00047241       2.71471221      -2.71455564       0.00000000
Si      -2.71557884       2.71414206       0.00075349       0.00000000
Si       2.71500543       2.71485882       0.00006850       0.00000000
Si       2.71526607       0.00003258      -2.71520638       0.00000000
