10
Lattice="16.28999089631971 0.0 0.0 0.0 16.28999089631971 0.0 0.0 0.0 34.24959146834617" Properties=species:S:1:pos:R:3:initial_magmoms:R:1 pbc="T T T"
Si      -0.43069131      -2.07526455       0.92415724       0.00000000
Si      -0.16330725       2.09992761       1.05646349       0.00000000
Si       2.37568473       0.19148895      -0.04336001       0.00000000
Si      -0.76857849      -0.20318517      -2.35654446       0.00000000
Si       2.06350317       1.74542463       1.68062839       0.00000000
Si       0.17054001      -3.14735832      -1.11054362       0.00000000
Si      -2.56824882      -1.65625317       1.76005324       0.00000000
Si       0.00560376       3.72904164      -0.67725180       0.00000000
Si       2.92503240       0.65326158      -2.33496720       0.00000000
Si       1.01131578       0.46569852      -3.80276852       0.00000000
