10
Lattice="16.28999089631971 0.0 0.0 0.0 16.28999089631971 0.0 0.0 0.0 34.24959146834617" Properties=species:S:1:pos:R:3:initial_magmoms:R:1 pbc="T T T"
Si       1.77989427       0.66888369      -1.44622406       0.00000000
Si      -0.50052654      -2.27198259      -0.62193868       0.00000000
Si      -2.18660670       0.88756065      -0.55278872       0.00000000
Si       0.76857849       0.20318517       2.35654446       0.00000000
Si       0.93911850      -2.94417315       1.24600083       0.00000000
Si       0.45589194       2.16896463      -2.69260164       0.00000000
Si      -3.52041561      -0.22600746       1.06413540       0.00000000
Si      -2.90463732      -2.26927845      -0.16700110       0.00000000
Si      -0.14696838       3.69398556      -0.68872542       0.00000000
Si       3.69361089       0.85644675       0.02157725       0.00000000
