10
Lattice="16.28999089631971 0.0 0.0 0.0 16.28999089631971 0.0 0.0 0.0 34.24959146834617" Properties=species:S:1:pos:R:3:initial_magmoms:R:1 pbc="T T T"
Si      -1.32869385       1.40196627      -1.32921026       0.00000000
Si      -1.36115982      -1.34759025       1.36967618       0.00000000
Si       1.35228177       1.37279088       1.36703896       0.00000000
Si       1.54986318      -1.11827592      -1.46090687       0.00000000
Si      -2.71171485      -2.69387730      -0.01094275       0.00000000
Si       2.72688084      -2.68190415      -0.01215176       0.00000000
Si       0.24149925       2.47860495      -2.90845779       0.00000000
Si       2.19711375       0.83624715      -3.02405023       0.00000000
Si      -0.00566892      -2.69705385       2.72777599       0.00000000
Si       2.71093293       0.01547550       2.72729649       0.00000000
