10
Lattice="16.28999089631971 0.0 0.0 0.0 16.28999089631971 0.0 0.0 0.0 34.24959146834617" Properties=species:S:1:pos:R:3:initial_magmoms:R:1 pbc="T T T"
Si       1.35865116      -1.35731538       1.36025753       0.00000000
Si      -1.35897696       1.35814617       1.36080553       0.00000000
Si      -1.35228177      -1.37279088      -1.36703896       0.00000000
Si       1.36948401       1.36948401      -1.39967884       0.00000000
Si       0.19758141      -2.49106680      -2.82794582       0.00000000
Si      -2.68097562       0.02917539      -2.69624922       0.00000000
Si       2.71300176      -2.71453302       0.00465795       0.00000000
Si       2.71298547       2.71546155       0.00017125       0.00000000
Si      -2.71469592       2.71655298       0.00301397       0.00000000
Si       2.71420722       0.00024435       2.71726136       0.00000000
