10
Lattice="16.28999089631971 0.0 0.0 0.0 16.28999089631971 0.0 0.0 0.0 34.24959146834617" Properties=species:S:1:pos:R:3:initial_magmoms:R:1 pbc="T T T"
Si      -1.35487188      -1.34820927       1.36673071       0.00000000
Si      -1.35387819       1.35808101      -1.36066853       0.00000000
Si       1.36029645      -1.35684297      -1.36012054       0.00000000
Si       1.36612827       1.36155078       1.37820433       0.00000000
Si      -2.71063971      -2.71482624      -0.00198648       0.00000000
Si       2.71595025      -2.71052568       0.00065074       0.00000000
Si      -2.71072116       2.71841004       0.00147273       0.00000000
Si      -2.71220355       0.00073305      -2.71753535       0.00000000
Si       0.00268785      -2.71397916      -2.71770660       0.00000000
Si       0.00298107       2.71640637      -2.71726136       0.00000000
