10
Lattice="16.28999089631971 0.0 0.0 0.0 16.28999089631971 0.0 0.0 0.0 34.24959146834617" Properties=species:S:1:pos:R:3:initial_magmoms:R:1 pbc="T T T"
Si       0.40675315       2.14718490      -0.80329037       0.00000000
Si       0.45645883      -1.43692135      -1.83225142       0.00000000
Si       1.88565058       0.18599922       1.48047367       0.00000000
Si      -2.33030635       0.26541297       0.61573950       0.00000000
Si      -1.78793080      -0.29572866       2.83429228       0.00000000
Si      -0.95489278       1.90827576      -2.67557958       0.00000000
Si       0.41763325       0.21921453      -3.53164860       0.00000000
Si       2.78306668       2.09347677      -1.17393965       0.00000000
Si      -0.28324237      -2.08677248       3.09297959       0.00000000
Si       1.99622710      -1.78483177       2.69078641       0.00000000
