10
Lattice="16.28999089631971 0.0 0.0 0.0 16.28999089631971 0.0 0.0 0.0 34.24959146834617" Properties=species:S:1:pos:R:3:initial_magmoms:R:1 pbc="T T T"
Si       0.95267178      -0.87987177      -1.98966263       0.00000000
Si       1.42827462      -1.00188387       1.82759347       0.00000000
Si       0.26819856       2.46521457      -0.57142050       0.00000000
Si      -2.40020118      -1.47649302       0.37907469       0.00000000
Si      -3.19155472       1.25560062      -0.23604832       0.00000000
Si      -1.10102481      -0.87459381      -3.19346794       0.00000000
Si      -2.02069305       2.42836659       1.86105534       0.00000000
Si      -2.46073482       1.03342131      -2.66592119       0.00000000
Si      -0.69048423       2.58475059      -2.81360551       0.00000000
Si      -2.57316840      -2.16116172      -1.99781404       0.00000000
