10
Lattice="16.28999089631971 0.0 0.0 0.0 16.28999089631971 0.0 0.0 0.0 34.24959146834617" Properties=species:S:1:pos:R:3:initial_magmoms:R:1 pbc="T T T"
Si      -0.38722959      -2.03149332      -1.02337836       0.00000000
Si      -1.20213684       0.12624750       2.02606997       0.00000000
Si       2.13079716       0.66588633       0.89353809       0.00000000
Si      -1.41838659       0.51701202      -1.92205390       0.00000000
Si       1.44640539       2.91516948       0.58693558       0.00000000
Si       0.32913945       1.45723663      -3.18555628       0.00000000
Si       1.72398699      -2.67742440      -1.82930595       0.00000000
Si      -3.32861715       1.01239092       1.47400049       0.00000000
Si       2.28537297      -0.48149982       3.08150597       0.00000000
Si       1.25537256       3.31270901      -1.81351688       0.00000000
