10
Lattice="16.28999089631971 0.0 0.0 0.0 16.28999089631971 0.0 0.0 0.0 34.24959146834617" Properties=species:S:1:pos:R:3:initial_magmoms:R:1 pbc="T T T"
Si      -1.34234487      -1.35937185      -1.35716822       0.00000000
Si       1.35609363      -1.35635265       1.36145627       0.00000000
Si      -1.35687555       1.35873587       1.36152477       0.00000000
Si       1.33858188       1.37497700      -1.37704669       0.00000000
Si       2.71077003       2.71626302      -0.00208923       0.00000000
Si      -2.71508199       2.71354259       0.00150698       0.00000000
Si      -2.71550879      -2.71362471      -0.00089049       0.00000000
Si       2.71489140      -2.71523742      -0.00448670       0.00000000
Si      -0.00027693      -2.71412970       2.71794635       0.00000000
Si       0.00026064       2.71535078       2.71726136       0.00000000
