10
Lattice="16.28999089631971 0.0 0.0 0.0 16.28999089631971 0.0 0.0 0.0 34.24959146834617" Properties=species:S:1:pos:R:3:initial_magmoms:R:1 pbc="T T T"
Si      -1.32901965      -1.35014031      -1.38451311       0.00000000
Si      -1.35379674       1.35941516       1.36001779       0.00000000
Si       1.35990549      -1.35356774       1.36056578       0.00000000
Si       1.36795275       1.35428381      -1.39408930       0.00000000
Si      -2.64627792       0.12884413      -2.72850208       0.00000000
Si      -2.71314837      -2.71418346      -0.00500044       0.00000000
Si       0.00159642      -2.71292913       2.71688461       0.00000000
Si       2.71800279      -2.71279881      -0.00157548       0.00000000
Si       2.71831230       2.71269062      -0.00195223       0.00000000
Si      -2.71350675       0.00197924       2.71760385       0.00000000
