10
Lattice="16.28999089631971 0.0 0.0 0.0 16.28999089631971 0.0 0.0 0.0 34.24959146834617" Properties=species:S:1:pos:R:3:initial_magmoms:R:1 pbc="T T T"
Si       1.35711990       1.35509411       1.35659283       0.00000000
Si      -1.35830907      -1.35936139       1.35631883       0.00000000
Si      -1.35990549       1.35356774      -1.36056578       0.00000000
Si       1.35809730      -1.35923107      -1.36214126       0.00000000
Si      -2.71370223       2.71298290      -0.00054799       0.00000000
Si      -0.00100998       2.71332499       2.71462414       0.00000000
Si       2.71459818      -0.00233616       2.71428164       0.00000000
Si       2.71603170       2.71319467       0.00041100       0.00000000
Si      -2.71595025      -0.00220033       2.71452139       0.00000000
Si      -0.00081450      -2.71716547       2.71417889       0.00000000
