10
Lattice="16.28999089631971 0.0 0.0 0.0 16.28999089631971 0.0 0.0 0.0 34.24959146834617" Properties=species:S:1:pos:R:3:initial_magmoms:R:1 pbc="T T T"
Si       1.91492208       0.29642913      -1.37566986       0.00000000
Si      -1.89258849      -0.30983580      -1.41163195       0.00000000
Si       0.07719831      -2.03739030       1.29463528       0.00000000
Si       0.05864400       1.94544954       1.52290894       0.00000000
Si      -0.67882059      -0.90782541       3.39242393       0.00000000
Si       1.96902117      -2.96969306      -0.33595443       0.00000000
Si      -1.67420475      -2.70457494      -1.86530229       0.00000000
Si      -1.76063949       1.42858413       2.96676977       0.00000000
Si       3.53931201      -1.14482862      -0.40174793       0.00000000
Si      -1.83725136       1.45829709      -3.03095354       0.00000000
