10
Lattice="16.28999089631971 0.0 0.0 0.0 16.28999089631971 0.0 0.0 0.0 34.24959146834617" Properties=species:S:1:pos:R:3:initial_magmoms:R:1 pbc="T T T"
Si       1.34115570       1.35894438      -1.38238278       0.00000000
Si      -1.36982610      -1.35967743      -1.38166354       0.00000000
Si      -1.35671265       1.37152026       1.38676673       0.00000000
Si       1.34921925      -1.28360313       1.64223458       0.00000000
Si      -0.53730936      -2.14941663       2.91429937       0.00000000
Si      -2.43242280      -0.18702549       2.90607946       0.00000000
Si       2.68980480      -2.70104653       0.00500044       0.00000000
Si       2.71507059       2.70031185      -0.01363135       0.00000000
Si      -2.72743470      -2.70987408      -0.01229561       0.00000000
Si       2.70080055       0.00325800      -2.74079084       0.00000000
