10
Lattice="16.28999089631971 0.0 0.0 0.0 16.28999089631971 0.0 0.0 0.0 34.24959146834617" Properties=species:S:1:pos:R:3:initial_magmoms:R:1 pbc="T T T"
Si       1.18534185      -1.02767094       1.73785949       0.00000000
Si       0.46118619       2.26851282       0.39332253       0.00000000
Si      -2.24233479      -0.79619004      -0.15902094       0.00000000
Si       1.11418713      -0.29398563      -2.28311329       0.00000000
Si      -0.64389483      -1.85378571      -2.70654123       0.00000000
Si       2.80917792       1.86942411       0.54110960       0.00000000
Si      -0.18443538      -2.77980705       2.19885925       0.00000000
Si       2.96984619       1.12619286      -1.75933400       0.00000000
Si      -0.59898330       2.63819808       2.48741222       0.00000000
Si      -3.53147652       0.95669541       0.62111669       0.00000000
