10
Lattice="16.28999089631971 0.0 0.0 0.0 16.28999089631971 0.0 0.0 0.0 34.24959146834617" Properties=species:S:1:pos:R:3:initial_magmoms:R:1 pbc="T T T"
Si       1.35782037      -1.35713619      -1.35717507       0.00000000
Si       1.35842310       1.35723393       1.35741482       0.00000000
Si      -1.35749457       1.35780408      -1.35786006       0.00000000
Si      -1.35677781      -1.35900954       1.35765456       0.00000000
Si       0.00000000      -2.71378368      -2.71421314       0.00000000
Si      -2.71471221      -0.00092853      -2.71390490       0.00000000
Si       2.71632492      -0.00053757      -2.71315140       0.00000000
Si       0.00084708      -2.71538010       2.71441864       0.00000000
Si      -2.71510317      -2.71482624       0.00030825       0.00000000
Si      -2.71513575       2.71496514       0.00034250       0.00000000
