10
Lattice="16.28999089631971 0.0 0.0 0.0 16.28999089631971 0.0 0.0 0.0 34.24959146834617" Properties=species:S:1:pos:R:3:initial_magmoms:R:1 pbc="T T T"
Si      -0.68439177       2.24928315      -0.30660251       0.00000000
Si      -2.13079716      -0.66588633      -0.89353809       0.00000000
Si       2.18303919      -0.27368829      -1.03834544       0.00000000
Si       0.15457581      -1.14738615       2.18796787       0.00000000
Si       2.66323581      -2.28970611       0.03531135       0.00000000
Si      -3.33293400      -0.53963883       1.13253187       0.00000000
Si       0.89731836       3.41440748       0.98769027       0.00000000
Si       2.50256754      -1.54647486       2.33575494       0.00000000
Si       0.80757675      -3.70988460      -0.48846795       0.00000000
Si      -0.30661038      -3.41589897       1.79464535       0.00000000
