10
Lattice="16.28999089631971 0.0 0.0 0.0 16.28999089631971 0.0 0.0 0.0 34.24959146834617" Properties=species:S:1:pos:R:3:initial_magmoms:R:1 pbc="T T T"
Si       1.68256152       1.20804359      -1.20274841       0.00000000
Si       1.31145903      -1.24781139       1.59687097       0.00000000
Si      -1.39579236       1.45473935       1.57779394       0.00000000
Si      -0.65407608      -2.00005103      -1.47773853       0.00000000
Si      -2.60837109      -2.60439374      -0.01704603       0.00000000
Si       2.68249059      -2.64611243       0.24543271       0.00000000
Si      -2.59405218       2.97347234       0.08923394       0.00000000
Si      -0.04574232      -2.61234326       2.97030775       0.00000000
Si       2.76482025       2.84685017       0.19781205       0.00000000
Si       2.66851377       0.10354901       2.97589044       0.00000000
