10
Lattice="16.28999089631971 0.0 0.0 0.0 16.28999089631971 0.0 0.0 0.0 34.24959146834617" Properties=species:S:1:pos:R:3:initial_magmoms:R:1 pbc="T T T"
Si       1.35689184      -1.35725329      -1.35710657       0.00000000
Si      -1.35698958      -1.35759538       1.35731207       0.00000000
Si      -1.35747828       1.35743027      -1.35768881       0.00000000
Si       1.35850455       1.35811282       1.35792856       0.00000000
Si       2.71322342       0.00057314      -2.71400764       0.00000000
Si       0.00091224      -2.71536688      -2.71325415       0.00000000
Si      -2.71459818       0.00233616      -2.71428164       0.00000000
Si       0.00143352       2.71553082      -2.71387065       0.00000000
Si       2.71499875      -2.71476415      -0.00010275       0.00000000
Si       2.71499932       2.71510728      -0.00013700       0.00000000
