10
Lattice="16.28999089631971 0.0 0.0 0.0 16.28999089631971 0.0 0.0 0.0 34.24959146834617" Properties=species:S:1:pos:R:3:initial_magmoms:R:1 pbc="T T T"
Si       1.35649477       1.35699447      -1.35806556       0.00000000
Si      -1.35850455      -1.35811282      -1.35792856       0.00000000
Si       1.35894438      -1.36287912       1.35662708       0.00000000
Si      -1.36216980       1.36324983       1.35940129       0.00000000
Si       0.02039508      -2.71886846       2.70109554       0.00000000
Si       2.71200385      -2.71471451      -0.00157548       0.00000000
Si       2.71348136      -0.00040725      -2.71534338       0.00000000
Si      -0.00100998       2.71416324      -2.71513788       0.00000000
Si       2.71410689       2.71523838      -0.00126724       0.00000000
Si      -0.00161271      -2.71536611      -2.71503513       0.00000000
