10
Lattice="16.28999089631971 0.0 0.0 0.0 16.28999089631971 0.0 0.0 0.0 34.24959146834617" Properties=species:S:1:pos:R:3:initial_magmoms:R:1 pbc="T T T"
Si      -1.00546767      -1.73619604       1.15362963       0.00000000
Si       1.27013130      -1.42670233      -1.33237835       0.00000000
Si       1.09825551       1.17977653       1.70813083       0.00000000
Si      -1.47716091       1.30319772      -1.28829910       0.00000000
Si       2.45819358       2.61164473       0.09182321       0.00000000
Si       2.60868060      -0.07071298      -2.67684682       0.00000000
Si       0.73174680      -3.43824040       1.35138689       0.00000000
Si      -0.11243358       2.65541596      -2.67407260       0.00000000
Si       2.60410311      -2.76336199       0.08055508       0.00000000
Si      -1.64581128      -1.06568335       3.28970935       0.00000000
