10
Lattice="16.28999089631971 0.0 0.0 0.0 16.28999089631971 0.0 0.0 0.0 34.24959146834617" Properties=species:S:1:pos:R:3:initial_magmoms:R:1 pbc="T T T"
Si      -1.85051142       0.36688338       1.37967706       0.00000000
Si       1.10560230       1.86113250       0.88709916       0.00000000
Si      -0.54237555       0.56114163      -2.21855278       0.00000000
Si       1.50468842      -1.79104382       0.25868731       0.00000000
Si       1.78793080       0.29572866      -2.83429228       0.00000000
Si       0.09107739       3.57532920      -0.38366414       0.00000000
Si       1.49567842      -2.18128706       2.52700477       0.00000000
Si      -3.38115240      -1.23995407       0.75862887       0.00000000
Si       0.57627504       1.93732083       3.19216646       0.00000000
Si      -1.14956901       2.83926555      -2.28095557       0.00000000
