10
Lattice="16.28999089631971 0.0 0.0 0.0 16.28999089631971 0.0 0.0 0.0 34.24959146834617" Properties=species:S:1:pos:R:3:initial_magmoms:R:1 pbc="T T T"
Si      -1.35677781      -1.35674523       1.35717507       0.00000000
Si      -1.35746199       1.35736425      -1.35727782       0.00000000
Si       1.35832536       1.35651717       1.35748332       0.00000000
Si       1.35811359      -1.35791811      -1.35734632       0.00000000
Si      -0.00304623      -2.70883152       2.71719286       0.00000000
Si       0.00205254      -2.71466334      -2.71400764       0.00000000
Si      -2.71485882       0.00278559      -2.71465839       0.00000000
Si      -2.71498914      -2.71453302       0.00020550       0.00000000
Si       0.00070047       2.71414206      -2.71551463       0.00000000
Si      -2.71472850       2.71494027       0.00006850       0.00000000
