10
Lattice="16.28999089631971 0.0 0.0 0.0 16.28999089631971 0.0 0.0 0.0 34.24959146834617" Properties=species:S:1:pos:R:3:initial_magmoms:R:1 pbc="T T T"
Si       1.23281091      -1.41188688       1.39135618       0.00000000
Si      -1.33781625      -1.36811565      -1.37453962       0.00000000
Si       1.38180927       1.34257293      -1.37649185       0.00000000
Si      -1.44456462       1.36158336       1.60699173       0.00000000
Si      -2.67727779       2.68102449      -0.00739792       0.00000000
Si       2.73837085       2.67685425      -0.00664442       0.00000000
Si       2.51917261       0.02264310       2.89049589       0.00000000
Si      -2.70254358      -2.72033389       0.01123387       0.00000000
Si      -2.69154783      -0.01602936      -2.73455741       0.00000000
Si       0.02355534       2.69723304      -2.73424916       0.00000000
