10
Lattice="16.28999089631971 0.0 0.0 0.0 16.28999089631971 0.0 0.0 0.0 34.24959146834617" Properties=species:S:1:pos:R:3:initial_magmoms:R:1 pbc="T T T"
Si       1.90025556      -0.93871125       0.99063574       0.00000000
Si      -0.99355968      -1.72709838      -1.38573925       0.00000000
Si      -0.99453708      -0.46490031       2.39510952       0.00000000
Si       1.80428040       0.97342524      -1.70470587       0.00000000
Si       2.09291381       1.68546114       1.52479266       0.00000000
Si       1.31631345      -1.18400607       3.22727231       0.00000000
Si      -2.58742215       2.69843850      -0.11836665       0.00000000
Si      -2.22627285      -0.40765725      -3.00012889       0.00000000
Si      -2.27302515      -3.00977298       0.29177243       0.00000000
Si       0.46540530       2.34439164      -3.00447859       0.00000000
