10
Lattice="16.28999089631971 0.0 0.0 0.0 16.28999089631971 0.0 0.0 0.0 34.24959146834617" Properties=species:S:1:pos:R:3:initial_magmoms:R:1 pbc="T T T"
Si       0.58394211       0.24529482      -2.23663657       0.00000000
Si       1.31788773       1.89387540       0.38763709       0.00000000
Si       0.22858128      -2.01686490       1.17691937       0.00000000
Si      -2.31085053       0.71910576      -0.83216279       0.00000000
Si      -2.66895360      -0.28049751       1.66346934       0.00000000
Si      -1.11392649       1.13627637       2.80473486       0.00000000
Si       0.77660036       2.86946721      -1.70247964       0.00000000
Si      -2.02839822      -2.56489308       1.59589486       0.00000000
Si      -1.31631345       1.18400607      -3.22727231       0.00000000
Si       3.52690622       1.19946528       0.42805163       0.00000000
