10
Lattice="16.28999089631971 0.0 0.0 0.0 16.28999089631971 0.0 0.0 0.0 34.24959146834617" Properties=species:S:1:pos:R:3:initial_magmoms:R:1 pbc="T T T"
Si       1.13599685      -1.70684991      -1.09382981       0.00000000
Si       1.89194408       1.35053874       0.29095044       0.00000000
Si      -1.56815685       1.20738222      -1.33830353       0.00000000
Si      -0.96760971      -0.57443427       2.16008869       0.00000000
Si      -2.20825611      -1.31049792       0.26279726       0.00000000
Si       0.73130764       3.31905492       0.24943991       0.00000000
Si       2.63800979       0.33124086       2.28283930       0.00000000
Si      -0.22564908      -1.94575905      -2.96611903       0.00000000
Si      -1.33892397       1.55642805       2.96865350       0.00000000
Si      -0.06509484       3.15335304      -1.96027646       0.00000000
