10
Lattice="16.28999089631971 0.0 0.0 0.0 16.28999089631971 0.0 0.0 0.0 34.24959146834617" Properties=species:S:1:pos:R:3:initial_magmoms:R:1 pbc="T T T"
Si       0.52606926      -2.22625656      -0.15230802       0.00000000
Si      -2.13043878       0.09306477      -0.93806258       0.00000000
Si      -0.29330145       1.31012325       1.92263614       0.00000000
Si       1.10704333       1.74133584      -1.12215424       0.00000000
Si       0.65392947       3.12883659       0.73722287       0.00000000
Si      -0.33044265       1.54261413      -2.91957381       0.00000000
Si       1.05539652      -2.30244489      -2.45737531       0.00000000
Si       1.46731265       0.57756195       3.28111270       0.00000000
Si       2.14097908      -2.57924457       1.46379411       0.00000000
Si       0.04087161      -0.58824819      -3.72813861       0.00000000
