10
Lattice="16.28999089631971 0.0 0.0 0.0 16.28999089631971 0.0 0.0 0.0 34.24959146834617" Properties=species:S:1:pos:R:3:initial_magmoms:R:1 pbc="T T T"
Si      -2.06008227      -0.18700920       1.04101691       0.00000000
Si      -0.16045650       1.66682538      -1.63302143       0.00000000
Si       0.91375497      -2.14220016      -0.67403234       0.00000000
Si      -0.62548713       0.97858917       2.81099025       0.00000000
Si       0.50280714       2.64319911       1.62016657       0.00000000
Si       2.13671043       1.36813194      -2.32798028       0.00000000
Si      -1.31180112       0.55609173      -3.48332240       0.00000000
Si       3.32211744      -1.59070221      -0.88682517       0.00000000
Si       1.15660629      -3.41536140       1.40635751       0.00000000
Si      -0.54475389      -3.07657827      -2.37983419       0.00000000
