10
Lattice="16.28999089631971 0.0 0.0 0.0 16.28999089631971 0.0 0.0 0.0 34.24959146834617" Properties=species:S:1:pos:R:3:initial_magmoms:R:1 pbc="T T T"
Si       1.35780408      -1.35674523      -1.35974379       0.00000000
Si      -1.35940050       1.35998694      -1.35902455       0.00000000
Si      -1.34302905      -1.37295378       1.36710746       0.00000000
Si       1.34864910       1.37909511       1.36275776       0.00000000
Si       2.68752420       0.00812871       2.66253048       0.00000000
Si       2.71605801      -2.71140534      -0.00198648       0.00000000
Si      -0.00052128      -2.71326240      -2.71722711       0.00000000
Si      -2.71446786       2.71632492      -0.00304822       0.00000000
Si      -2.71694394      -2.71432125      -0.00164398       0.00000000
Si      -2.66132988      -0.01923849       2.76880702       0.00000000
