10
Lattice="16.28999089631971 0.0 0.0 0.0 16.28999089631971 0.0 0.0 0.0 34.24959146834617" Properties=species:S:1:pos:R:3:initial_magmoms:R:1 pbc="T T T"
Si      -1.66697199      -0.98906364       1.39789786       0.00000000
Si      -1.32387201       1.33841898      -1.48489187       0.00000000
Si       1.38585546      -1.34311050      -1.48821408       0.00000000
Si       0.87781923       2.05203501       1.17445340       0.00000000
Si      -2.62412352      -2.74144410      -0.08216482       0.00000000
Si      -2.67113646       2.70376533      -0.08195932       0.00000000
Si       2.72473056      -2.71407690      -0.18844136       0.00000000
Si       2.75017554       2.72691342      -0.09637840       0.00000000
Si      -2.67726150      -0.00588069      -2.85402005       0.00000000
Si       0.03486060       2.70992295      -2.85093759       0.00000000
