10
Lattice="16.28999089631971 0.0 0.0 0.0 16.28999089631971 0.0 0.0 0.0 34.24959146834617" Properties=species:S:1:pos:R:3:initial_magmoms:R:1 pbc="T T T"
Si       1.35850455       1.35659862      -1.35597633       0.00000000
Si      -1.35782037      -1.35664749      -1.35703807       0.00000000
Si      -1.35782037       1.35713619       1.35717507       0.00000000
Si       1.35726651      -1.35796698       1.35707232       0.00000000
Si       2.71340901       0.00050499      -2.71226091       0.00000000
Si       0.00060273       2.71437012       2.71458989       0.00000000
Si       2.71435383      -2.71466334       0.00013700       0.00000000
Si       2.71448415       2.71471221       0.00017125       0.00000000
Si       2.71487511       0.00006516       2.71452139       0.00000000
Si      -2.71459818      -0.00187335       2.71482963       0.00000000
