10
Lattice="16.28999089631971 0.0 0.0 0.0 16.28999089631971 0.0 0.0 0.0 34.24959146834617" Properties=species:S:1:pos:R:3:initial_magmoms:R:1 pbc="T T T"
Si       1.35567009      -1.35386190       1.35820256       0.00000000
Si       1.35771595       1.35713619      -1.35734632       0.00000000
Si      -1.35760860      -1.35803214      -1.35744907       0.00000000
Si      -1.35972630       1.35749457       1.36015479       0.00000000
Si       0.02161683       2.71114470       2.70178053       0.00000000
Si      -0.00873144      -2.69553888       2.72287829       0.00000000
Si       2.71322560       2.71529865      -0.00089049       0.00000000
Si      -2.71427238       2.71430496       0.00006850       0.00000000
Si      -0.00039096       2.71464705      -2.71435014       0.00000000
Si       2.71467053      -0.00034209      -2.71441864       0.00000000
