10
Lattice="16.28999089631971 0.0 0.0 0.0 16.28999089631971 0.0 0.0 0.0 34.24959146834617" Properties=species:S:1:pos:R:3:initial_magmoms:R:1 pbc="T T T"
Si      -0.58394211      -0.24529482       2.23663657       0.00000000
Si      -1.90025556       0.93871125      -0.99063574       0.00000000
Si       1.06992199      -2.12732739      -1.09287082       0.00000000
Si       0.19265825       2.62417239       0.53415693       0.00000000
Si       0.73394562       1.64858058       2.62427366       0.00000000
Si      -2.89479264       0.47381094       1.40447378       0.00000000
Si      -0.09597516       1.91213649      -2.69534161       0.00000000
Si       1.63101638       2.74339890      -1.33933102       0.00000000
Si       2.61905375      -0.81272439      -2.44514820       0.00000000
Si      -2.89381524      -0.78838713      -2.37637498       0.00000000
