10
Lattice="16.28999089631971 0.0 0.0 0.0 16.28999089631971 0.0 0.0 0.0 34.24959146834617" Properties=species:S:1:pos:R:3:initial_magmoms:R:1 pbc="T T T"
Si       0.55395515       2.11673889       0.82630611       0.00000000
Si      -2.36589444       0.21779730       0.06367003       0.00000000
Si       0.41784569      -1.85772789       1.43444219       0.00000000
Si       1.04306729      -1.04717007      -1.91266950       0.00000000
Si      -2.76429897      -1.84016727      -0.87689278       0.00000000
Si      -1.48937841      -3.10974471       0.61909596       0.00000000
Si       0.54494515       1.72649565       3.09462357       0.00000000
Si       2.83342463       2.41867960       0.42411293       0.00000000
Si       3.79257983       0.50880186      -0.55645342       0.00000000
Si       2.63092364      -2.75889069       0.94165879       0.00000000
