10
Lattice="16.28999089631971 0.0 0.0 0.0 16.28999089631971 0.0 0.0 0.0 34.24959146834617" Properties=species:S:1:pos:R:3:initial_magmoms:R:1 pbc="T T T"
Si      -1.65377709      -1.38240198       1.02604983       0.00000000
Si       1.89363105      -0.18109593       1.51489453       0.00000000
Si       0.88524747      -0.43161984      -2.22910166       0.00000000
Si      -1.08074376       2.01841149      -0.96652401       0.00000000
Si      -0.67883688       1.11573468      -3.13353112       0.00000000
Si       0.44989722       3.62524895      -0.34547582       0.00000000
Si      -3.66656949      -0.16102665       1.07242381       0.00000000
Si      -2.49913035      -0.49073625      -2.94039757       0.00000000
Si      -1.34035749      -1.68876801       3.35858532       0.00000000
Si       1.20251151       0.38296161       3.82157155       0.00000000
