10
Lattice="16.28999089631971 0.0 0.0 0.0 16.28999089631971 0.0 0.0 0.0 34.24959146834617" Properties=species:S:1:pos:R:3:initial_magmoms:R:1 pbc="T T T"
Si       0.11332953       2.30026203      -0.43942250       0.00000000
Si       1.65102408      -0.36887076       1.64655003       0.00000000
Si       0.63827478      -0.88523118      -2.12854480       0.00000000
Si      -2.10470710      -0.79780275       0.82586086       0.00000000
Si       0.04834872      -2.20286412       2.82096918       0.00000000
Si      -0.76134573       3.16164465       1.56513871       0.00000000
Si       3.63763845      -0.51815232       0.22296497       0.00000000
Si      -1.74856534      -3.08382243       1.05766223       0.00000000
Si      -3.71961692      -0.44481474      -0.79024127       0.00000000
Si      -0.97494021      -0.21556557      -3.71608275       0.00000000
