10
Lattice="16.28999089631971 0.0 0.0 0.0 16.28999089631971 0.0 0.0 0.0 34.24959146834617" Properties=species:S:1:pos:R:3:initial_magmoms:R:1 pbc="T T T"
Si       1.35834654      -1.35493704       1.36207276       0.00000000
Si      -1.35858168       1.36086660       1.36255226       0.00000000
Si       1.34793723       1.37702628      -1.36574432       0.00000000
Si      -1.36036391      -1.35553977      -1.38351302       0.00000000
Si      -2.71649012      -2.71218726       0.00181523       0.00000000
Si      -0.00005376      -2.71329498       2.71938483       0.00000000
Si       2.71536870       2.71811682       0.00493194       0.00000000
Si       2.71481484       0.00174303       2.71969308       0.00000000
Si      -2.71692995       2.71783989       0.00715817       0.00000000
Si       2.71662303      -2.71881729       0.00455520       0.00000000
