10
Lattice="16.28999089631971 0.0 0.0 0.0 16.28999089631971 0.0 0.0 0.0 34.24959146834617" Properties=species:S:1:pos:R:3:initial_magmoms:R:1 pbc="T T T"
Si      -1.72699154      -0.83126241      -1.35601058       0.00000000
Si       0.92033613       1.78513965      -1.24165113       0.00000000
Si      -1.43835813      -0.11922651       1.87348795       0.00000000
Si       1.84666698      -1.56369339       0.17939946       0.00000000
Si      -1.63101638      -2.74339890       1.33933102       0.00000000
Si      -0.34189615      -2.21651514      -2.65068011       0.00000000
Si       2.37250818       0.52836615      -2.65143361       0.00000000
Si       2.64575664      -0.67566033       2.38709511       0.00000000
Si       2.33396604       1.78347807       2.20173622       0.00000000
Si       2.21693868       3.13471728       0.14042340       0.00000000
