10
Lattice="16.28999089631971 0.0 0.0 0.0 16.28999089631971 0.0 0.0 0.0 34.24959146834617" Properties=species:S:1:pos:R:3:initial_magmoms:R:1 pbc="T T T"
Si      -1.35698658       1.35740172       1.35727782       0.00000000
Si      -1.35876249      -1.35713243      -1.35659283       0.00000000
Si       1.35858600       1.35798816      -1.35642158       0.00000000
Si       1.35808101      -1.35805096       1.35724357       0.00000000
Si      -2.71423070       0.00129180      -2.71342540       0.00000000
Si      -0.00147750      -2.71430726       2.71376790       0.00000000
Si      -2.71348136       0.00040725       2.71534338       0.00000000
Si      -2.71449134       2.71457049       0.00020550       0.00000000
Si       0.00037956       2.71279488      -2.71643937       0.00000000
Si       0.00062554       2.71564563       2.71407614       0.00000000
