10
Lattice="16.28999089631971 0.0 0.0 0.0 16.28999089631971 0.0 0.0 0.0 34.24959146834617" Properties=species:S:1:pos:R:3:initial_magmoms:R:1 pbc="T T T"
Si       0.94047546       1.76005535       1.23587562       0.00000000
Si      -1.78256976      -0.92191626       1.27426259       0.00000000
Si       1.78875929      -1.78292421      -0.24125327       0.00000000
Si      -0.44061841      -2.26062846       2.64499365       0.00000000
Si       2.29080080       0.46633383       2.64303115       0.00000000
Si      -3.27010740      -1.94953833      -0.26036455       0.00000000
Si       0.61789762      -2.95569018      -2.33835693       0.00000000
Si       0.86933540      -3.58083522       1.17844245       0.00000000
Si       3.56339189      -0.92914902       1.21872342       0.00000000
Si       1.94229254       3.39124310      -0.21834028       0.00000000
