10
Lattice="16.28999089631971 0.0 0.0 0.0 16.28999089631971 0.0 0.0 0.0 34.24959146834617" Properties=species:S:1:pos:R:3:initial_magmoms:R:1 pbc="T T T"
Si      -1.35871524       1.35723999       1.36224401       0.00000000
Si       1.35804680      -1.35951453       1.36111378       0.00000000
Si       1.37316392       1.35425286      -1.35627773       0.00000000
Si      -1.35825529      -1.37270943      -1.35431523       0.00000000
Si       0.02283858       2.64797438      -2.76343326       0.00000000
Si      -2.70020664      -0.03399723      -2.72504629       0.00000000
Si       2.64575501      -0.04122999      -2.78058546       0.00000000
Si       2.71550879       2.71362471       0.00089049       0.00000000
Si      -2.71418346       2.71566422       0.00541144       0.00000000
Si       2.71617668      -2.71451673       0.00448670       0.00000000
