10
Lattice="16.28999089631971 0.0 0.0 0.0 16.28999089631971 0.0 0.0 0.0 34.24959146834617" Properties=species:S:1:pos:R:3:initial_magmoms:R:1 pbc="T T T"
Si       2.03597307       0.82759716      -0.65142759       0.00000000
Si       0.65171403      -1.71321930       1.45451246       0.00000000
Si      -0.95905746       1.90972787       0.98070335       0.00000000
Si      -0.73914246      -0.66132513      -2.14577235       0.00000000
Si      -2.74924375      -1.55602080      -1.35614758       0.00000000
Si       2.49041520      -2.60692128       0.07302017       0.00000000
Si       1.48038633       2.36142351      -2.33743318       0.00000000
Si       3.16043919      -0.97686243      -1.59904582       0.00000000
Si      -0.33423822       1.29841074      -3.46393712       0.00000000
Si      -1.16144442      -3.26785545       1.49811222       0.00000000
