10
Lattice="16.28999089631971 0.0 0.0 0.0 16.28999089631971 0.0 0.0 0.0 34.24959146834617" Properties=species:S:1:pos:R:3:initial_magmoms:R:1 pbc="T T T"
Si       0.00901163       0.39025953      -2.26831746       0.00000000
Si       2.17498216       0.25293483       0.89141462       0.00000000
Si      -1.90233058      -1.25810928       0.71307689       0.00000000
Si      -1.24577842       0.97984906       1.84119057       0.00000000
Si       1.05158303       1.47949594       2.51282543       0.00000000
Si      -0.65831215      -3.28217436       0.62279492       0.00000000
Si       2.28837685       0.69218069      -2.67037364       0.00000000
Si      -0.54496633      -1.72644678      -3.09458932       0.00000000
Si      -1.49563444       2.18133593      -2.52697052       0.00000000
Si       3.48129355       1.29534889      -0.75030622       0.00000000
