10
Lattice="16.28999089631971 0.0 0.0 0.0 16.28999089631971 0.0 0.0 0.0 34.24959146834617" Properties=species:S:1:pos:R:3:initial_magmoms:R:1 pbc="T T T"
Si       0.73081338      -0.22211415      -2.42994137       0.00000000
Si      -2.54472184       0.38952648       0.00458945       0.00000000
Si       1.17093660       1.17276597       2.09710366       0.00000000
Si      -0.94751469      -1.86841413       1.94376815       0.00000000
Si       0.79121670      -2.73214251       0.61519151       0.00000000
Si       3.19148304      -1.25551917       0.23587707       0.00000000
Si       0.25127162      -0.62517762       3.51676513       0.00000000
Si       3.45964902       1.20963024      -0.33537219       0.00000000
Si      -0.61799536       2.95583679       2.33841549       0.00000000
Si       2.50101510       1.32916626      -2.57752295       0.00000000
