10
Lattice="16.28999089631971 0.0 0.0 0.0 16.28999089631971 0.0 0.0 0.0 34.24959146834617" Properties=species:S:1:pos:R:3:initial_magmoms:R:1 pbc="T T T"
Si      -1.35697329       1.35698144       1.35738057       0.00000000
Si      -1.35839052      -1.35724574      -1.35659283       0.00000000
Si       1.35762489      -1.35785274       1.35751757       0.00000000
Si       1.35974259       1.35747013      -1.35751757       0.00000000
Si       0.00159642      -2.71334289       2.71445289       0.00000000
Si      -2.71423980       2.71450858      -0.00075349       0.00000000
Si       2.71531494       0.00095622       2.71404189       0.00000000
Si       0.00017919       2.71447600       2.71513788       0.00000000
Si      -2.71476108      -2.71502076      -0.00010275       0.00000000
Si       2.71516833      -2.71487415      -0.00065074       0.00000000
