10
Lattice="16.28999089631971 0.0 0.0 0.0 16.28999089631971 0.0 0.0 0.0 34.24959146834617" Properties=species:S:1:pos:R:3:initial_magmoms:R:1 pbc="T T T"
Si       1.35532800      -1.35266947      -1.35864780       0.00000000
Si      -1.35070164      -1.34517607       1.37118316       0.00000000
Si      -1.35980775       1.36085031      -1.35755182       0.00000000
Si       1.36472733       1.35249354       1.38344452       0.00000000
Si       2.71006956      -2.70993405       0.00503469       0.00000000
Si      -0.00236205      -2.71147844      -2.71517213       0.00000000
Si       2.71257822       0.00408879      -2.71506938       0.00000000
Si      -2.71617831      -2.71475316       0.00030825       0.00000000
Si      -2.71696023       0.00335574      -2.71530913       0.00000000
Si       2.71363707       2.71876842       0.00099324       0.00000000
