10
Lattice="16.28999089631971 0.0 0.0 0.0 16.28999089631971 0.0 0.0 0.0 34.24959146834617" Properties=species:S:1:pos:R:3:initial_magmoms:R:1 pbc="T T T"
Si       1.35778779      -1.35221542      -1.35854505       0.00000000
Si      -1.33897284      -1.37057425       1.36573747       0.00000000
Si      -1.35897696       1.36090430      -1.35782581       0.00000000
Si       1.36547667       1.36957709       1.37087491       0.00000000
Si      -2.46526344       0.14132103       2.72849523       0.00000000
Si       2.71290402      -2.70930274       0.00383596       0.00000000
Si      -2.71467963      -2.70889549       0.00352771       0.00000000
Si      -0.00096111      -2.71088287      -2.71520638       0.00000000
Si       2.71381626       0.00327472      -2.71548038       0.00000000
Si       2.71617831       2.71475316      -0.00030825       0.00000000
