10
Lattice="16.28999089631971 0.0 0.0 0.0 16.28999089631971 0.0 0.0 0.0 34.24959146834617" Properties=species:S:1:pos:R:3:initial_magmoms:R:1 pbc="T T T"
Si       1.07380422       1.58346945       1.36645671       0.00000000
Si       1.30432401      -1.39704343      -1.43632592       0.00000000
Si      -0.81625932      -1.73066426       1.44803929       0.00000000
Si      -1.42794882       1.31339754      -1.42077660       0.00000000
Si      -2.52641610      -2.62529950      -0.07870561       0.00000000
Si       2.55313170      -2.71683447       0.10987275       0.00000000
Si       2.66224212       2.68697034      -0.04041454       0.00000000
Si       2.65502565      -0.05186736      -2.80750908       0.00000000
Si      -2.80381851       2.66370822       0.10648204       0.00000000
Si      -0.06209748       2.66804136      -2.80274838       0.00000000
