10
Lattice="16.28999089631971 0.0 0.0 0.0 16.28999089631971 0.0 0.0 0.0 34.24959146834617" Properties=species:S:1:pos:R:3:initial_magmoms:R:1 pbc="T T T"
Si      -0.50274198       2.02245074       1.02587859       0.00000000
Si       0.55558674      -1.53382635       1.68600558       0.00000000
Si       1.98892755      -0.05608973      -1.27343477       0.00000000
Si      -1.81462455      -1.06301277      -1.12650394       0.00000000
Si      -0.70723035      -1.11572721      -3.23597171       0.00000000
Si       1.41688791      -2.00012760      -2.68729295       0.00000000
Si      -1.48038633      -2.36142351       2.33743318       0.00000000
Si      -2.54995515       1.51907345       2.10768679       0.00000000
Si       3.72350304       0.12511860       0.43103135       0.00000000
Si      -2.21952879      -3.02274864       0.19166082       0.00000000
