10
Lattice="16.28999089631971 0.0 0.0 0.0 16.28999089631971 0.0 0.0 0.0 34.24959146834617" Properties=species:S:1:pos:R:3:initial_magmoms:R:1 pbc="T T T"
Si      -1.34280099      -1.36826226      -1.37673160       0.00000000
Si       1.36925595       1.34693865      -1.37871808       0.00000000
Si       1.38153861      -1.34933328       1.38560225       0.00000000
Si      -1.41250590       1.40046759       1.48540561       0.00000000
Si      -0.20689929      -2.45283417       2.79247350       0.00000000
Si      -2.70050733       2.71098180      -0.01250111       0.00000000
Si      -2.70865233      -2.72290608       0.00524019       0.00000000
Si      -2.70042588      -0.01216863      -2.73924961       0.00000000
Si       2.74473468       2.69803125      -0.01469308       0.00000000
Si       0.01531260       2.70381420      -2.73942085       0.00000000
