10
Lattice="16.28999089631971 0.0 0.0 0.0 16.28999089631971 0.0 0.0 0.0 34.24959146834617" Properties=species:S:1:pos:R:3:initial_magmoms:R:1 pbc="T T T"
Si       2.04485112       0.56275434      -1.07458153       0.00000000
Si      -1.23445620      -0.95229711      -1.79639208       0.00000000
Si      -1.33138170       1.85386716       0.69167089       0.00000000
Si      -0.05528826      -1.76813289       1.61915034       0.00000000
Si       3.35562597      -1.44129033      -0.71701560       0.00000000
Si       1.29795462       1.47113361      -3.17829537       0.00000000
Si      -3.05465193      -2.13527691      -0.73235942       0.00000000
Si       1.83726765      -1.45837854       3.03074804       0.00000000
Si      -3.57964605       1.05026517       0.95683137       0.00000000
Si      -1.20583467       3.58624350      -0.96782550       0.00000000
