10
Lattice="16.28999089631971 0.0 0.0 0.0 16.28999089631971 0.0 0.0 0.0 34.24959146834617" Properties=species:S:1:pos:R:3:initial_magmoms:R:1 pbc="T T T"
Si      -1.32869385       1.40186853      -1.32904929       0.00000000
Si      -1.36114353      -1.34763912       1.36961453       0.00000000
Si       1.35231435       1.37270943       1.36697731       0.00000000
Si       1.54989576      -1.11837366      -1.46093769       0.00000000
Si      -2.71173114      -2.69397504      -0.01088453       0.00000000
Si       2.72683197      -2.68206705      -0.01208326       0.00000000
Si       0.24158070       2.47850721      -2.90858794       0.00000000
Si       2.19719520       0.83624715      -3.02414613       0.00000000
Si      -0.00563634      -2.69715159       2.72771434       0.00000000
Si       2.71094922       0.01539405       2.72723484       0.00000000
