10
Lattice="16.28999089631971 0.0 0.0 0.0 16.28999089631971 0.0 0.0 0.0 34.24959146834617" Properties=species:S:1:pos:R:3:initial_magmoms:R:1 pbc="T T T"
Si      -1.35628911      -1.35796698       1.35696957       0.00000000
Si       1.35798327       1.35718506       1.35638733       0.00000000
Si      -1.35573525       1.35839052      -1.35779156       0.00000000
Si       1.35896067      -1.35814617      -1.36080553       0.00000000
Si      -2.71386513       2.71340901      -0.00116449       0.00000000
Si      -2.71275741      -2.71464705      -0.00065074       0.00000000
Si      -2.71425609      -0.00024435       2.71417889       0.00000000
Si       0.00065160      -2.71510317       2.71414464       0.00000000
Si       2.71544526       0.00000000       2.71400764       0.00000000
Si       2.71601541       2.71384884      -0.00003425       0.00000000
