10
Lattice="16.28999089631971 0.0 0.0 0.0 16.28999089631971 0.0 0.0 0.0 34.24959146834617" Properties=species:S:1:pos:R:3:initial_magmoms:R:1 pbc="T T T"
Si       1.58612472       1.39401675       0.95470790       0.00000000
Si       0.98704368      -1.58141691      -1.40193931       0.00000000
Si      -1.19498553      -1.42822575       1.46509559       0.00000000
Si      -1.32248736       1.62634473      -1.14266976       0.00000000
Si      -2.83819041       2.03642919       0.64115271       0.00000000
Si      -3.24874728      -1.42291521       0.26129028       0.00000000
Si       1.56600657      -0.25746345      -3.26607712       0.00000000
Si       3.09646836       0.03486060       2.07672514       0.00000000
Si       0.55741122       2.33561133       2.88833816       0.00000000
Si      -0.73347354      -3.16659681      -1.99997176       0.00000000
