10
Lattice="16.28999089631971 0.0 0.0 0.0 16.28999089631971 0.0 0.0 0.0 34.24959146834617" Properties=species:S:1:pos:R:3:initial_magmoms:R:1 pbc="T T T"
Si      -1.51570305       0.41008446       1.78382247       0.00000000
Si       1.32248736      -1.62634473       1.14266976       0.00000000
Si      -0.79917111      -0.83339640      -2.14522436       0.00000000
Si       0.82979631       2.29669452      -0.35537396       0.00000000
Si      -2.52333729       2.35030491       0.94275478       0.00000000
Si       2.90861208      -0.23232798       2.09737765       0.00000000
Si      -1.21702590       3.39271897      -0.69896605       0.00000000
Si       1.98294912       2.10370689      -2.41302207       0.00000000
Si      -1.92625992      -3.04925994       1.40396004       0.00000000
Si       2.30953104      -3.20776164      -0.25926955       0.00000000
