10
Lattice="16.28999089631971 0.0 0.0 0.0 16.28999089631971 0.0 0.0 0.0 34.24959146834617" Properties=species:S:1:pos:R:3:initial_magmoms:R:1 pbc="T T T"
Si      -0.81673173      -1.94763240       1.29576008       0.00000000
Si       2.09064231       0.72786978       1.23516909       0.00000000
Si      -0.61144515       0.28070928      -2.44531945       0.00000000
Si      -1.82029347       1.82187360       0.30240355       0.00000000
Si       0.60598800       2.08241586       2.83972910       0.00000000
Si      -2.14659846      -0.65107872       2.84369520       0.00000000
Si      -3.56272074       0.67888575       1.44201276       0.00000000
Si      -3.04841286      -0.13800888      -2.45035414       0.00000000
Si      -0.71117253       3.56161043       1.49564423       0.00000000
Si      -0.69110325       2.67638740      -2.83973796       0.00000000
