10
Lattice="16.28999089631971 0.0 0.0 0.0 16.28999089631971 0.0 0.0 0.0 34.24959146834617" Properties=species:S:1:pos:R:3:initial_magmoms:R:1 pbc="T T T"
Si      -1.35532800       1.35266947       1.35864780       0.00000000
Si       1.35725022       1.35675826      -1.35642158       0.00000000
Si      -1.35769005      -1.35880897      -1.35652433       0.00000000
Si       1.35474156      -1.35726457       1.36368250       0.00000000
Si      -2.71371852      -2.71429911       0.00041100       0.00000000
Si       2.71437012       2.71368268       0.00075349       0.00000000
Si      -0.00045612       2.71446460      -2.71404189       0.00000000
Si      -2.71513575       2.71351978       0.00109599       0.00000000
Si      -2.71531494      -0.00095622      -2.71404189       0.00000000
Si       2.71526607      -0.00139279      -2.71438439       0.00000000
