10
Lattice="16.28999089631971 0.0 0.0 0.0 16.28999089631971 0.0 0.0 0.0 34.24959146834617" Properties=species:S:1:pos:R:3:initial_magmoms:R:1 pbc="T T T"
Si       0.06616998       0.51456200       2.27626337       0.00000000
Si       1.47134538       1.34805614      -1.21257321       0.00000000
Si      -1.36634004      -1.39472830      -1.30364293       0.00000000
Si       0.45085833      -2.14441301       2.78363710       0.00000000
Si      -1.68933816      -2.82722465       1.89153749       0.00000000
Si       0.10028124       2.62273235      -2.83758024       0.00000000
Si      -2.61514773      -0.07493726      -2.84984160       0.00000000
Si      -3.10559076      -2.31340547      -0.03339337       0.00000000
Si      -1.03099410       2.76127880       2.53998537       0.00000000
Si       2.77514811       2.73089795       0.44295021       0.00000000
