10
Lattice="16.28999089631971 0.0 0.0 0.0 16.28999089631971 0.0 0.0 0.0 34.24959146834617" Properties=species:S:1:pos:R:3:initial_magmoms:R:1 pbc="T T T"
Si      -1.10496699      -1.90662788       0.79061801       0.00000000
Si      -1.54616535       1.81232114      -0.31023297       0.00000000
Si       1.57856616       0.22344341       1.87454969       0.00000000
Si       0.66508812      -0.64396976      -2.30249857       0.00000000
Si      -2.50282818      -2.30291471      -1.04752434       0.00000000
Si      -0.11375307       3.45774146      -1.36107953       0.00000000
Si       0.50008671      -3.59114420       1.25473448       0.00000000
Si       0.78657894      -3.00895589      -2.26944770       0.00000000
Si      -2.25811980      -1.71364025       2.84826612       0.00000000
Si       3.62680560      -0.97149813       1.48643310       0.00000000
