10
Lattice="16.28999089631971 0.0 0.0 0.0 16.28999089631971 0.0 0.0 0.0 34.24959146834617" Properties=species:S:1:pos:R:3:initial_magmoms:R:1 pbc="T T T"
Si      -1.46478051       0.77690268      -1.90253162       0.00000000
Si       1.09125081      -1.75935258      -1.46204738       0.00000000
Si      -0.90824895       2.32660296       0.82798434       0.00000000
Si       2.26173618       0.88728372       1.19914737       0.00000000
Si      -0.35952030      -2.45794923       1.94616562       0.00000000
Si      -2.23938630      -0.23454342       2.36644260       0.00000000
Si      -2.71489140      -1.72897173       0.63498778       0.00000000
Si      -2.77638615       2.17691415      -0.59590897       0.00000000
Si       1.73610675      -3.04748433       0.78236386       0.00000000
Si      -0.28082331      -0.10406052       3.71526076       0.00000000
