10
Lattice="16.28999089631971 0.0 0.0 0.0 16.28999089631971 0.0 0.0 0.0 34.24959146834617" Properties=species:S:1:pos:R:3:initial_magmoms:R:1 pbc="T T T"
Si      -1.38153861       1.34933328      -1.38560225       0.00000000
Si       1.35751086      -1.38634416      -1.38365002       0.00000000
Si      -1.58843790      -1.10350089       1.40687125       0.00000000
Si       1.47634641       1.25807670       1.45639619       0.00000000
Si      -2.66224212      -2.68697034       0.04041454       0.00000000
Si       2.72857500      -2.66102037       0.24135701       0.00000000
Si       0.16474077       2.65808817       2.76301884       0.00000000
Si       2.77371459       2.66098779      -0.00369896       0.00000000
Si      -0.01228266       2.69627193      -2.76432032       0.00000000
Si       2.70642060      -0.02006928      -2.76610130       0.00000000
