10
Lattice="16.28999089631971 0.0 0.0 0.0 16.28999089631971 0.0 0.0 0.0 34.24959146834617" Properties=species:S:1:pos:R:3:initial_magmoms:R:1 pbc="T T T"
Si      -2.09678364       1.03539240      -0.06959521       0.00000000
Si       1.44264240       1.06893351      -1.53794451       0.00000000
Si       0.64537722       0.50300262       2.23886280       0.00000000
Si       0.11474676      -2.40502302      -0.16494612       0.00000000
Si       3.04212492       0.00003258       1.51201756       0.00000000
Si       3.13587387       1.66087953      -0.07832886       0.00000000
Si      -3.68082324      -0.60279516       0.49545487       0.00000000
Si       2.17398195      -2.86850610      -1.18962597       0.00000000
Si      -2.49250032       1.88548605      -2.19207783       0.00000000
Si      -1.49705100       0.16166196       3.50931785       0.00000000
