10
Lattice="16.28999089631971 0.0 0.0 0.0 16.28999089631971 0.0 0.0 0.0 34.24959146834617" Properties=species:S:1:pos:R:3:initial_magmoms:R:1 pbc="T T T"
Si      -1.81933236      -0.51665364       1.44375809       0.00000000
Si      -0.05866029      -1.94538438      -1.52301168       0.00000000
Si       1.96538850      -0.20052990       1.49602299       0.00000000
Si      -0.69204807       2.37724857      -0.63642626       0.00000000
Si      -0.73744830      -2.85317721       1.86944650       0.00000000
Si      -1.13207355       3.07335285       1.64507730       0.00000000
Si       0.90541449      -1.66343706       3.15346581       0.00000000
Si       1.85624550      -1.64889009      -2.89861305       0.00000000
Si      -1.77937299       1.11873204       3.20828573       0.00000000
Si       0.01861947      -3.98270952      -0.22823941       0.00000000
