10
Lattice="16.28999089631971 0.0 0.0 0.0 16.28999089631971 0.0 0.0 0.0 34.24959146834617" Properties=species:S:1:pos:R:3:initial_magmoms:R:1 pbc="T T T"
Si       2.06000082       0.18699291      -1.04091417       0.00000000
Si      -1.05997401      -1.46290716       1.65744282       0.00000000
Si      -1.96538850       0.20052990      -1.49602299       0.00000000
Si       1.43449740       1.16564724       1.77017883       0.00000000
Si       1.89954432       1.85378571      -2.67383285       0.00000000
Si      -3.78472086      -0.31612374      -0.05226491       0.00000000
Si      -2.70283680      -2.65264731       0.37342350       0.00000000
Si       2.56284054       2.83015944       0.57929761       0.00000000
Si       2.97378837      -1.95530499      -1.71504925       0.00000000
Si       0.10546146       2.45459349       3.18036545       0.00000000
