10
Lattice="16.28999089631971 0.0 0.0 0.0 16.28999089631971 0.0 0.0 0.0 34.24959146834617" Properties=species:S:1:pos:R:3:initial_magmoms:R:1 pbc="T T T"
Si       1.35438318      -1.35721764      -1.35559959       0.00000000
Si       1.35557235       1.35749457       1.35696957       0.00000000
Si      -1.35913986      -1.35718506       1.35686682       0.00000000
Si      -1.35863487       1.35731538      -1.36025753       0.00000000
Si       2.68916949       0.00156384      -2.72006982       0.00000000
Si       2.71306692      -2.71197549       0.00000000       0.00000000
Si       2.71319724       0.00017919       2.71452139       0.00000000
Si      -2.71658556      -2.71254564       0.00047949       0.00000000
Si       2.71313208       2.71642266       0.00020550       0.00000000
Si      -0.00149868      -2.71502172       2.71455564       0.00000000
