10
Lattice="16.28999089631971 0.0 0.0 0.0 16.28999089631971 0.0 0.0 0.0 34.24959146834617" Properties=species:S:1:pos:R:3:initial_magmoms:R:1 pbc="T T T"
Si      -1.27224900       1.39251807       1.38943820       0.00000000
Si       1.34381097       1.36122498      -1.36775820       0.00000000
Si      -1.37547873      -1.35109260      -1.36402499       0.00000000
Si       1.41051852      -1.38637674       1.39659637       0.00000000
Si       2.69097768       2.70319518       0.00387021       0.00000000
Si       2.69817786       0.00584811      -2.72407703       0.00000000
Si      -0.01441665      -2.70990666      -2.72472777       0.00000000
Si       2.70630657      -2.72965014       0.00010275       0.00000000
Si      -0.01493793       2.71841004      -2.72428253       0.00000000
Si      -2.74473468      -2.69803125       0.01469308       0.00000000
