10
Lattice="16.28999089631971 0.0 0.0 0.0 16.28999089631971 0.0 0.0 0.0 34.24959146834617" Properties=species:S:1:pos:R:3:initial_magmoms:R:1 pbc="T T T"
Si       1.34716671       1.34197020       1.37162841       0.00000000
Si       1.35436689      -1.35537687      -1.35631883       0.00000000
Si      -1.35874890       1.35718506      -1.35652433       0.00000000
Si      -1.34381097      -1.36122498       1.36775820       0.00000000
Si      -2.61605997       0.03129309       2.75719640       0.00000000
Si       2.71366965       0.00109143      -2.71448714       0.00000000
Si      -0.00149868      -2.71378368      -2.71441864       0.00000000
Si       2.71384884       2.71604799       0.00410995       0.00000000
Si       2.71454931      -2.71621089       0.00414420       0.00000000
Si      -0.00167787       2.71648782      -2.71441864       0.00000000
