10
Lattice="16.28999089631971 0.0 0.0 0.0 16.28999089631971 0.0 0.0 0.0 34.24959146834617" Properties=species:S:1:pos:R:3:initial_magmoms:R:1 pbc="T T T"
Si      -0.39571668       0.85009365      -2.12248262       0.00000000
Si       2.09678364      -1.03539240       0.06959521       0.00000000
Si      -1.58403960      -1.63818756       0.56505008       0.00000000
Si       0.15936507       2.20529133       0.97155870       0.00000000
Si       2.74216086      -0.53238978       2.30845800       0.00000000
Si       0.59973264      -0.87373044       3.57891306       0.00000000
Si      -3.68230563      -0.44026983       0.63156282       0.00000000
Si      -0.83714310      -2.54656683       2.66876391       0.00000000
Si       0.97881723       2.60408682      -2.59427101       0.00000000
Si       3.53942604       0.03354111      -1.46834931       0.00000000
