10
Lattice="16.28999089631971 0.0 0.0 0.0 16.28999089631971 0.0 0.0 0.0 34.24959146834617" Properties=species:S:1:pos:R:3:initial_magmoms:R:1 pbc="T T T"
Si       1.15502616       1.37295378      -1.45875942       0.00000000
Si      -1.94771385       1.18076436       0.53785589       0.00000000
Si       1.08286146       0.48210255       2.05086668       0.00000000
Si      -0.15936507      -2.20529133      -0.97155870       0.00000000
Si      -0.39431574      -0.94943007       3.22103888       0.00000000
Si      -0.55508175      -1.35519768      -3.09404132       0.00000000
Si      -2.52667674      -0.14318910       2.40199369       0.00000000
Si       0.81945216       0.39879549      -3.56582971       0.00000000
Si       0.46043685       3.59406270      -1.02957754       0.00000000
Si      -1.24820496       3.48376311       0.71235765       0.00000000
