10
Lattice="16.28999089631971 0.0 0.0 0.0 16.28999089631971 0.0 0.0 0.0 34.24959146834617" Properties=species:S:1:pos:R:3:initial_magmoms:R:1 pbc="T T T"
Si       1.35742941      -1.35845568       1.36310025       0.00000000
Si      -1.35808101       1.35921983       1.36210701       0.00000000
Si       1.35720135       1.36449267      -1.37336486       0.00000000
Si      -1.35987291      -1.37696112      -1.39366461       0.00000000
Si       2.71233387      -2.71456560       0.00684992       0.00000000
Si       2.71427238       2.71588576       0.00554844       0.00000000
Si      -2.71798650       2.71280858       0.00157548       0.00000000
Si       2.71340901      -0.00035838       2.71928208       0.00000000
Si      -0.00096111       2.71430726       2.71873409       0.00000000
Si      -2.71767699      -2.71538010       0.00181523       0.00000000
