10
Lattice="16.28999089631971 0.0 0.0 0.0 16.28999089631971 0.0 0.0 0.0 34.24959146834617" Properties=species:S:1:pos:R:3:initial_magmoms:R:1 pbc="T T T"
Si       1.32916626       1.35031298       1.38439324       0.00000000
Si      -1.38398211      -1.36386396       1.37939279       0.00000000
Si      -1.31716053       1.47919457      -1.34408487       0.00000000
Si       1.48465431      -1.35454608      -1.60456001       0.00000000
Si      -2.42628147      -0.26054226      -2.53732555       0.00000000
Si      -0.60598800      -2.08241586      -2.83972910       0.00000000
Si       2.69708643       2.70461960      -0.00952482       0.00000000
Si       2.68727985      -2.73945672      -0.01084685       0.00000000
Si       2.68907175      -0.00327577       2.74492477       0.00000000
Si      -0.02464677       2.70971837       2.74437677       0.00000000
