10
Lattice="16.28999089631971 0.0 0.0 0.0 16.28999089631971 0.0 0.0 0.0 34.24959146834617" Properties=species:S:1:pos:R:3:initial_magmoms:R:1 pbc="T T T"
Si      -1.35723393      -1.35871632      -1.35604483       0.00000000
Si      -1.35754344       1.35702141       1.35816831       0.00000000
Si       1.35736425      -1.35757602       1.35796281       0.00000000
Si       1.35829278       1.35935015      -1.35631883       0.00000000
Si      -2.71357191       0.00153126       2.71510363       0.00000000
Si      -0.00161271       2.71293890      -2.71685036       0.00000000
Si       2.71541268       2.71443758       0.00030825       0.00000000
Si      -2.71516833       2.71487415       0.00065074       0.00000000
Si       2.71536381      -2.71494027       0.00065074       0.00000000
Si       0.00014661       2.71583037       2.71469264       0.00000000
