10
Lattice="16.28999089631971 0.0 0.0 0.0 16.28999089631971 0.0 0.0 0.0 34.24959146834617" Properties=species:S:1:pos:R:3:initial_magmoms:R:1 pbc="T T T"
Si      -1.35650414      -1.35786924       1.35601058       0.00000000
Si      -1.35640477       1.35674523      -1.35741482       0.00000000
Si       1.35808101       1.35682668       1.35751757       0.00000000
Si       1.35860229      -1.35829278      -1.35816831       0.00000000
Si      -2.71414516       2.71445157      -0.00010275       0.00000000
Si       0.00146610      -2.71495656      -2.71393914       0.00000000
Si      -2.71411283      -2.71547784      -0.00017125       0.00000000
Si       0.00200367       2.71510317      -2.71472689       0.00000000
Si      -2.71367363       0.00128691       2.71616537       0.00000000
Si       2.71577106       0.00174303      -2.71414464       0.00000000
