10
Lattice="16.28999089631971 0.0 0.0 0.0 16.28999089631971 0.0 0.0 0.0 34.24959146834617" Properties=species:S:1:pos:R:3:initial_magmoms:R:1 pbc="T T T"
Si       1.35707103       1.35139309       1.37891330       0.00000000
Si      -1.35720135      -1.36449267       1.37336486       0.00000000
Si       1.37108043      -1.39834329      -1.35152388       0.00000000
Si      -1.31142645       1.24788480      -1.59697029       0.00000000
Si      -1.96551882      -0.75223302      -3.07478418       0.00000000
Si       0.37110249       2.45579644      -2.79972555       0.00000000
Si      -0.11645721      -2.42581875      -2.88617157       0.00000000
Si      -2.70726768       2.70262252      -0.01897771       0.00000000
Si       2.71657703       2.69718166       0.00947002       0.00000000
Si       0.00073305       2.70793306       2.73588287       0.00000000
