10
Lattice="16.28999089631971 0.0 0.0 0.0 16.28999089631971 0.0 0.0 0.0 34.24959146834617" Properties=species:S:1:pos:R:3:initial_magmoms:R:1 pbc="T T T"
Si      -1.00419705      -1.73421941       1.15352689       0.00000000
Si       1.27159740      -1.42685969      -1.33179611       0.00000000
Si       1.09828809       1.18055911       1.70963781       0.00000000
Si      -1.47220875       1.30629347      -1.29206656       0.00000000
Si       2.45913840       2.61148737       0.09127521       0.00000000
Si       2.61008154      -0.07095173      -2.67629882       0.00000000
Si       0.73176309      -3.44061320       1.35258562       0.00000000
Si      -0.11103264       2.65353186      -2.67427810       0.00000000
Si       2.60586243      -2.76425240       0.08048658       0.00000000
Si      -1.64369358      -1.07019014       3.29159308       0.00000000
