10
Lattice="16.28999089631971 0.0 0.0 0.0 16.28999089631971 0.0 0.0 0.0 34.24959146834617" Properties=species:S:1:pos:R:3:initial_magmoms:R:1 pbc="T T T"
Si       1.79206194      -1.09322206       0.96988047       0.00000000
Si      -1.09828809      -1.18055911      -1.70963781       0.00000000
Si       1.36085031       1.43092826      -1.61836260       0.00000000
Si      -1.26860004      -0.62881681       2.39784949       0.00000000
Si      -1.94927769       1.63712708       2.52313456       0.00000000
Si       3.27105548       0.83989448       1.23990440       0.00000000
Si      -2.10248514      -2.91477852      -0.55611093       0.00000000
Si      -2.74198167      -2.25074925       1.58195526       0.00000000
Si       2.98853964      -2.46038526      -0.46394523       0.00000000
Si       2.64746450       2.86755965      -0.11603768       0.00000000
