10
Lattice="16.28999089631971 0.0 0.0 0.0 16.28999089631971 0.0 0.0 0.0 34.24959146834617" Properties=species:S:1:pos:R:3:initial_magmoms:R:1 pbc="T T T"
Si      -1.47338163      -1.62193244      -0.81589422       0.00000000
Si      -0.68067765       2.26594389       0.12528508       0.00000000
Si       0.06465501      -0.86382842       2.43826403       0.00000000
Si       1.26860004       0.62881681      -2.39784949       0.00000000
Si       3.06066198      -0.46440526      -1.42796902       0.00000000
Si       2.91494891      -2.19345080       0.27827809       0.00000000
Si       0.23398956       2.80861266       2.40939161       0.00000000
Si       2.27579445      -1.68337832       2.45093638       0.00000000
Si      -1.00007568      -3.63430130       0.25248813       0.00000000
Si      -0.83388510      -2.28596171      -2.95396042       0.00000000
