10
Lattice="16.28999089631971 0.0 0.0 0.0 16.28999089631971 0.0 0.0 0.0 34.24959146834617" Properties=species:S:1:pos:R:3:initial_magmoms:R:1 pbc="T T T"
Si       1.35646830       1.35668007       1.35762031       0.00000000
Si      -1.35840844      -1.35835794       1.35731207       0.00000000
Si      -1.35834980       1.35495333      -1.36203851       0.00000000
Si       1.35826020      -1.36384767      -1.35751757       0.00000000
Si       2.71376739      -2.71336014       0.00058224       0.00000000
Si       2.71275741       2.71464705       0.00065074       0.00000000
Si       2.71340901      -0.00045612       2.71479538       0.00000000
Si      -0.00149868       2.71440270       2.71482963       0.00000000
Si      -0.00200367      -2.71510317       2.71472689       0.00000000
Si      -2.71614883      -0.00065160       2.71462414       0.00000000
