10
Lattice="16.28999089631971 0.0 0.0 0.0 16.28999089631971 0.0 0.0 0.0 34.24959146834617" Properties=species:S:1:pos:R:3:initial_magmoms:R:1 pbc="T T T"
Si       0.26862210       1.11915558      -1.97246932       0.00000000
Si      -2.27393739       0.12781134       0.54364407       0.00000000
Si       0.65765988      -2.27294370      -0.10514630       0.00000000
Si       1.57529187       1.43068554       1.10979013       0.00000000
Si       0.93322152      -1.08875844       2.70845921       0.00000000
Si       2.68428249       0.30221208      -1.70720609       0.00000000
Si       2.91604032      -1.72201590      -0.52662201       0.00000000
Si      -2.35263438      -2.22607737      -1.22545107       0.00000000
Si      -0.25700733      -2.81561247      -2.38925284       0.00000000
Si       0.20188197       2.84868117       2.36014067       0.00000000
