10
Lattice="16.28999089631971 0.0 0.0 0.0 16.28999089631971 0.0 0.0 0.0 34.24959146834617" Properties=species:S:1:pos:R:3:initial_magmoms:R:1 pbc="T T T"
Si      -0.37183554       2.13130215       0.80764007       0.00000000
Si       1.01401992      -1.71367542       1.27028381       0.00000000
Si      -1.23997851      -0.73723653      -1.89400347       0.00000000
Si       0.96837534       0.57523248      -2.16043119       0.00000000
Si      -2.90131416      -1.05342543       1.34237924       0.00000000
Si      -3.29921370      -0.27375345      -0.86932362       0.00000000
Si       3.22963001      -1.40805873       0.64906437       0.00000000
Si      -0.63413712      -3.01303098      -1.83571063       0.00000000
Si      -0.09154980      -3.57475905       0.38321889       0.00000000
Si      -2.17181538       0.68183424       2.78956228       0.00000000
