10
Lattice="16.28999089631971 0.0 0.0 0.0 16.28999089631971 0.0 0.0 0.0 34.24959146834617" Properties=species:S:1:pos:R:3:initial_magmoms:R:1 pbc="T T T"
Si       0.16045650      -1.66679280       1.63291868       0.00000000
Si       2.29724838      -0.29879118      -0.69509585       0.00000000
Si      -1.15132833      -1.11079881      -1.85040371       0.00000000
Si      -0.81155151       2.27610396       0.52470403       0.00000000
Si       0.66329622       0.97637373       3.25313046       0.00000000
Si      -2.91560049       2.26833363      -0.57703744       0.00000000
Si      -1.89954432      -1.85378571       2.67383285       0.00000000
Si       0.46006218      -1.51576821      -3.55576032       0.00000000
Si       2.59053354      -1.60883298      -2.61759499       0.00000000
Si       0.59939055       3.97063863      -0.45394434       0.00000000
