10
Lattice="16.28999089631971 0.0 0.0 0.0 16.28999089631971 0.0 0.0 0.0 34.24959146834617" Properties=species:S:1:pos:R:3:initial_magmoms:R:1 pbc="T T T"
Si      -1.35573525       1.35702216       1.36268926       0.00000000
Si       1.35974259      -1.36000323       1.36162752       0.00000000
Si      -1.37969784      -1.35783666      -1.35758607       0.00000000
Si       1.37430585       1.36186029      -1.36517578       0.00000000
Si      -0.05066190      -2.64678291      -2.76777268       0.00000000
Si      -2.71451673       2.71337643       0.00243172       0.00000000
Si       2.71549413       2.71419093       0.00746642       0.00000000
Si      -2.71448415      -2.71661814       0.00688417       0.00000000
Si       2.71595025      -2.71583622       0.00215773       0.00000000
Si      -2.71329498      -0.00190593       2.71945333       0.00000000
