10
Lattice="16.28999089631971 0.0 0.0 0.0 16.28999089631971 0.0 0.0 0.0 34.24959146834617" Properties=species:S:1:pos:R:3:initial_magmoms:R:1 pbc="T T T"
Si       1.34319195      -1.37497374       1.28477139       0.00000000
Si       1.36086660       1.32867756      -1.36238101       0.00000000
Si      -1.35127179      -1.39048182      -1.35772306       0.00000000
Si      -1.37122704       1.32955722       1.47687746       0.00000000
Si      -0.30918420      -2.30026203       2.69931456       0.00000000
Si      -2.22084828      -0.44085627       2.81021480       0.00000000
Si       2.70829299       2.67188580       0.01736455       0.00000000
Si      -2.71865439       2.66769927       0.00976114       0.00000000
Si       0.00599472       2.68423362      -2.71897384       0.00000000
Si      -2.71145421      -0.02964780      -2.71818610       0.00000000
