10
Lattice="16.28999089631971 0.0 0.0 0.0 16.28999089631971 0.0 0.0 0.0 34.24959146834617" Properties=species:S:1:pos:R:3:initial_magmoms:R:1 pbc="T T T"
Si       0.93032094      -1.18403865      -1.79557009       0.00000000
Si       0.79386287       0.16941600       2.20793540       0.00000000
Si       0.42385018       2.05581429      -1.13626508       0.00000000
Si      -1.50229638      -1.94269653       0.62539789       0.00000000
Si      -1.01985174       1.46515518      -2.88138549       0.00000000
Si      -2.79723735       0.15833880      -1.96770863       0.00000000
Si      -2.87570628      -0.52470090       1.87574842       0.00000000
Si       1.95413930      -1.79929566       2.24807594       0.00000000
Si      -3.35986137       1.08238905       0.19001684       0.00000000
Si      -1.18247481       0.06724512       3.33536408       0.00000000
