10
Lattice="16.28999089631971 0.0 0.0 0.0 16.28999089631971 0.0 0.0 0.0 34.24959146834617" Properties=species:S:1:pos:R:3:initial_magmoms:R:1 pbc="T T T"
Si      -1.60663383       0.55944747      -1.56678269       0.00000000
Si       1.77738561       1.30681638      -0.91367686       0.00000000
Si      -0.56262402       0.92405025       2.15772547       0.00000000
Si      -0.01172880      -2.41256529      -0.48915294       0.00000000
Si       2.79723735      -0.15833880       1.96770863       0.00000000
Si      -3.18171393      -0.97324605      -0.86031597       0.00000000
Si       1.29494097      -2.10103533       2.59310652       0.00000000
Si      -0.66261204      -0.13901886      -3.64319958       0.00000000
Si       3.17840773      -0.36320184      -1.91325175       0.00000000
Si       3.22108753       1.89747549       0.83144355       0.00000000
