10
Lattice="16.28999089631971 0.0 0.0 0.0 16.28999089631971 0.0 0.0 0.0 34.24959146834617" Properties=species:S:1:pos:R:3:initial_magmoms:R:1 pbc="T T T"
Si       1.35760869       1.35760860       1.35618183       0.00000000
Si      -1.35661875      -1.35697655       1.35809981       0.00000000
Si      -1.35746583       1.35711990      -1.35714082       0.00000000
Si       1.35701085      -1.35746688      -1.35734632       0.00000000
Si      -2.71355946       0.00035838      -2.71380215       0.00000000
Si      -0.00174558      -2.71460114      -2.71393914       0.00000000
Si       2.71114805       0.00273672       2.71763810       0.00000000
Si       2.71557893       0.00052128      -2.71376790       0.00000000
Si       2.71411283       2.71547784       0.00017125       0.00000000
Si      -0.00055770       2.71448415      -2.71568587       0.00000000
