10
Lattice="16.28999089631971 0.0 0.0 0.0 16.28999089631971 0.0 0.0 0.0 34.24959146834617" Properties=species:S:1:pos:R:3:initial_magmoms:R:1 pbc="T T T"
Si       1.35843939       1.35661491      -1.35597633       0.00000000
Si      -1.35788553      -1.35666378      -1.35700382       0.00000000
Si       1.35734796      -1.35803214       1.35724357       0.00000000
Si      -1.35799956       1.35736425       1.35731207       0.00000000
Si       2.71334385       0.00050499      -2.71222666       0.00000000
Si       2.71428867      -2.71471221       0.00020550       0.00000000
Si       2.71441899       2.71471221       0.00020550       0.00000000
Si      -0.00022806       2.71432125       2.71489813       0.00000000
Si      -0.00195480      -2.71450044       2.71541188       0.00000000
Si       2.71549413      -0.00061902       2.71462414       0.00000000
