10
Lattice="16.28999089631971 0.0 0.0 0.0 16.28999089631971 0.0 0.0 0.0 34.24959146834617" Properties=species:S:1:pos:R:3:initial_magmoms:R:1 pbc="T T T"
Si       2.21113944      -0.81954990       0.01267236       0.00000000
Si      -1.21744944      -2.02675293       0.11843515       0.00000000
Si      -0.75539988       1.39880342       1.79567283       0.00000000
Si      -0.06465501       0.86382842      -2.43826403       0.00000000
Si       0.16933455       3.67244108      -0.02887242       0.00000000
Si      -1.53803664      -0.75810402      -3.25415825       0.00000000
Si      -1.06473069      -2.77047288      -2.18577590       0.00000000
Si       2.85029390      -1.32962238      -2.15998594       0.00000000
Si       2.24257914      -3.09988926       0.71585111       0.00000000
Si      -1.38691431      -0.12393432       3.65285797       0.00000000
