10
Lattice="16.28999089631971 0.0 0.0 0.0 16.28999089631971 0.0 0.0 0.0 34.24959146834617" Properties=species:S:1:pos:R:3:initial_magmoms:R:1 pbc="T T T"
Si       1.21744944       2.02675293      -0.11843515       0.00000000
Si      -2.34869220       0.39578184      -0.14888306       0.00000000
Si       1.28381490      -1.68347376       1.15030742       0.00000000
Si       0.15271875      -0.74371995      -2.30421105       0.00000000
Si      -2.81323413      -1.87424595      -0.54946650       0.00000000
Si      -1.62960273      -2.89862631       1.19205770       0.00000000
Si      -0.32058720       1.26864891      -3.37259341       0.00000000
Si       3.42858888       1.20720303      -0.10576280       0.00000000
Si       3.46002858      -1.07313633       0.59741596       0.00000000
Si      -2.49702894       1.56934602      -2.33513845       0.00000000
