10
Lattice="16.28999089631971 0.0 0.0 0.0 16.28999089631971 0.0 0.0 0.0 34.24959146834617" Properties=species:S:1:pos:R:3:initial_magmoms:R:1 pbc="T T T"
Si       0.39923532       2.05938180       0.94056281       0.00000000
Si      -2.29025997      -0.22118562      -0.19905874       0.00000000
Si       1.27617489      -1.26807876       1.49729023       0.00000000
Si       0.28758366       0.01980864      -2.34787931       0.00000000
Si       2.76521121       1.84135644       0.87771477       0.00000000
Si       1.62800631      -3.17394360       0.27940832       0.00000000
Si      -2.98484928       1.99992330       0.23012313       0.00000000
Si      -0.54938025      -2.15879967      -2.86593892       0.00000000
Si      -2.62583397      -1.19534391      -2.30612903       0.00000000
Si      -0.21949146      -2.06443170       3.15798535       0.00000000
