10
Lattice="16.28999089631971 0.0 0.0 0.0 16.28999089631971 0.0 0.0 0.0 34.24959146834617" Properties=species:S:1:pos:R:3:initial_magmoms:R:1 pbc="T T T"
Si       1.24401843      -2.02406508      -0.09028197       0.00000000
Si       1.90233058       1.25810928      -0.71307689       0.00000000
Si      -1.89379395       0.18104706      -1.51496303       0.00000000
Si      -0.69128244       0.56399238       2.30660853       0.00000000
Si       0.65655216       2.23795834       1.12811367       0.00000000
Si       1.77524252      -2.32609797      -2.37329252       0.00000000
Si      -3.54752217      -1.20138750      -0.48887894       0.00000000
Si      -0.32024511      -3.78628470       0.35986066       0.00000000
Si       0.03921003      -1.36881612       3.60151780       0.00000000
Si      -1.00861164      -0.25031214      -3.74481817       0.00000000
