10
Lattice="16.28999089631971 0.0 0.0 0.0 16.28999089631971 0.0 0.0 0.0 34.24959146834617" Properties=species:S:1:pos:R:3:initial_magmoms:R:1 pbc="T T T"
Si       1.48753764       1.02747546       1.53464769       0.00000000
Si      -1.12456386      -1.71866016       1.35746760       0.00000000
Si      -1.84906161       1.67358573      -0.18861261       0.00000000
Si       1.34332227      -0.61670682      -2.07340293       0.00000000
Si      -1.72224396       1.49682294      -2.69801308       0.00000000
Si       0.61282980       1.31610168      -3.36831220       0.00000000
Si       0.11645721       2.42581875       2.88617157       0.00000000
Si       3.27004875       1.94960349       0.26042312       0.00000000
Si      -2.60061705      -0.31563504       2.86587183       0.00000000
Si       2.82946201      -0.31109013       2.90536163       0.00000000
