10
Lattice="16.28999089631971 0.0 0.0 0.0 16.28999089631971 0.0 0.0 0.0 34.24959146834617" Properties=species:S:1:pos:R:3:initial_magmoms:R:1 pbc="T T T"
Si       1.27835775       1.80573021       0.80387261       0.00000000
Si       1.14733728      -1.40471928       1.57335861       0.00000000
Si      -2.37730396       0.05367555       0.37174527       0.00000000
Si      -0.19064187      -0.91015488      -2.22440946       0.00000000
Si      -0.89987589      -1.90809657       2.65516681       0.00000000
Si       0.17179434       0.98668530      -3.47945219       0.00000000
Si       0.00009774       3.63895794       0.06027931       0.00000000
Si      -2.78562258      -2.09458449       1.17534389       0.00000000
Si       3.43200978       1.37542986      -0.04109953       0.00000000
Si      -0.44131239       3.03051015      -2.24917193       0.00000000
