10
Lattice="16.28999089631971 0.0 0.0 0.0 16.28999089631971 0.0 0.0 0.0 34.24959146834617" Properties=species:S:1:pos:R:3:initial_magmoms:R:1 pbc="T T T"
Si      -1.35652353      -1.35767376      -1.35755182       0.00000000
Si       1.35812662       1.35738054      -1.35734632       0.00000000
Si      -1.35862902       1.35907470       1.35635308       0.00000000
Si       1.35931579      -1.35803214       1.35909305       0.00000000
Si      -2.71350090       2.71463076      -0.00023975       0.00000000
Si      -2.71470636       0.00053757      -2.71465839       0.00000000
Si       0.00048707       2.71497285      -2.71472689       0.00000000
Si      -2.71395702      -2.71585251      -0.00061649       0.00000000
Si       0.00121686      -2.71538010      -2.71486388       0.00000000
Si       2.71609360      -0.00034209      -2.71455564       0.00000000
