10
Lattice="16.28999089631971 0.0 0.0 0.0 16.28999089631971 0.0 0.0 0.0 34.24959146834617" Properties=species:S:1:pos:R:3:initial_magmoms:R:1 pbc="T T T"
Si      -1.34742639      -1.34320824      -1.37974556       0.00000000
Si      -1.34703543       1.38699576       1.37782759       0.00000000
Si       1.37079536       1.37275830      -1.37443687       0.00000000
Si       1.27390244      -1.43791830       1.40091182       0.00000000
Si       2.57065160      -0.08757504       2.78185612       0.00000000
Si      -2.70829299      -2.67188580      -0.01736455       0.00000000
Si      -2.68130046       2.72438847      -0.03445511       0.00000000
Si       2.72682383      -2.69443116      -0.00928164       0.00000000
Si       0.13392986       2.87142201       2.54303359       0.00000000
Si       0.01120263      -2.70228294      -2.73609864       0.00000000
