10
Lattice="16.28999089631971 0.0 0.0 0.0 16.28999089631971 0.0 0.0 0.0 34.24959146834617" Properties=species:S:1:pos:R:3:initial_magmoms:R:1 pbc="T T T"
Si      -1.47207843      -1.28661678       1.19541416       0.00000000
Si       2.05376175      -0.00531054       1.20380531       0.00000000
Si       0.21567960      -1.04138712      -2.14138840       0.00000000
Si      -1.35964485       1.90806399       0.52744400       0.00000000
Si       1.10102481       0.87465897       3.19326245       0.00000000
Si       0.41055687       3.45934440       0.37986243       0.00000000
Si       3.24874728       1.42291521      -0.26129028       0.00000000
Si      -0.68606964       0.66122739      -3.50558464       0.00000000
Si       2.51527374      -1.74368160      -2.26126204       0.00000000
Si      -1.29924153      -0.60196437       3.57257688       0.00000000
