10
Lattice="16.28999089631971 0.0 0.0 0.0 16.28999089631971 0.0 0.0 0.0 34.24959146834617" Properties=species:S:1:pos:R:3:initial_magmoms:R:1 pbc="T T T"
Si       1.36246302       1.18182321       1.56460582       0.00000000
Si       1.37749869      -0.87325803      -1.77029387       0.00000000
Si      -0.89585226       1.78380387      -1.46331461       0.00000000
Si      -1.34129417      -1.55919735       1.43527929       0.00000000
Si      -0.32979105      -1.03239504      -3.36803821       0.00000000
Si       2.93273757       2.25846189      -0.01493283       0.00000000
Si      -2.63458365       2.64753225      -0.13473797       0.00000000
Si      -2.34686446      -1.83519882      -2.28996321       0.00000000
Si      -0.03860730       2.52802881       2.89303862       0.00000000
Si       2.06547426      -3.11709150      -1.22969802       0.00000000
