10
Lattice="16.28999089631971 0.0 0.0 0.0 16.28999089631971 0.0 0.0 0.0 34.24959146834617" Properties=species:S:1:pos:R:3:initial_magmoms:R:1 pbc="T T T"
Si       0.94055528       1.75976539       1.23581363       0.00000000
Si      -1.78251111      -0.92212803       1.27422457       0.00000000
Si       1.78893196      -1.78307082      -0.24131184       0.00000000
Si      -0.44058674      -2.26069362       2.64493851       0.00000000
Si       2.29074541       0.46621980       2.64298628       0.00000000
Si      -3.27004875      -1.94960349      -0.26042312       0.00000000
Si       0.61799536      -2.95583679      -2.33841549       0.00000000
Si       0.86926698      -3.58101441       1.17834963       0.00000000
Si       3.56333650      -0.92931192       1.21857923       0.00000000
Si       1.94235118       3.39111278      -0.21839885       0.00000000
