10
Lattice="16.28999089631971 0.0 0.0 0.0 16.28999089631971 0.0 0.0 0.0 34.24959146834617" Properties=species:S:1:pos:R:3:initial_magmoms:R:1 pbc="T T T"
Si      -1.34192437       1.33856559      -1.37071394       0.00000000
Si      -1.35787228      -1.34214939       1.36102473       0.00000000
Si       1.35825131       1.37264427       1.35434605       0.00000000
Si       1.30985372      -1.32032079      -1.46658888       0.00000000
Si       0.44058674       2.26069362      -2.64493851       0.00000000
Si       2.22951870       0.47762280      -2.88625034       0.00000000
Si       2.70704376      -2.68306074      -0.01180927       0.00000000
Si      -2.69906056      -2.69448003      -0.01161747       0.00000000
Si       0.00047871      -2.69912268       2.71638457       0.00000000
Si      -2.71277674       0.01396053       2.71727506       0.00000000
