10
Lattice="16.28999089631971 0.0 0.0 0.0 16.28999089631971 0.0 0.0 0.0 34.24959146834617" Properties=species:S:1:pos:R:3:initial_magmoms:R:1 pbc="T T T"
Si      -1.35870919       1.35723816       1.36220976       0.00000000
Si       1.35804517      -1.35951453       1.36107953       0.00000000
Si       1.37308084       1.35426915      -1.35629828       0.00000000
Si      -1.35825131      -1.37264427      -1.35434605       0.00000000
Si       0.02289071       2.64781474      -2.76347093       0.00000000
Si      -2.70017568      -0.03407868      -2.72505999       0.00000000
Si       2.64567193      -0.04126257      -2.78070534       0.00000000
Si       2.71550716       2.71362960       0.00089049       0.00000000
Si      -2.71418508       2.71565770       0.00537719       0.00000000
Si       2.71617505      -2.71453302       0.00445245       0.00000000
