10
Lattice="16.28999089631971 0.0 0.0 0.0 16.28999089631971 0.0 0.0 0.0 34.24959146834617" Properties=species:S:1:pos:R:3:initial_magmoms:R:1 pbc="T T T"
Si      -1.35306762       1.35198207       1.35833956       0.00000000
Si      -1.35551954      -1.35814617      -1.35645583       0.00000000
Si       1.35955037       1.35627556      -1.35652433       0.00000000
Si       1.36054406      -1.35555606       1.36286051       0.00000000
Si      -2.69155176      -0.00392589       2.70284227       0.00000000
Si      -2.71215861       2.71481388       0.00167823       0.00000000
Si      -2.71362471      -0.00063531      -2.71345965       0.00000000
Si       0.00147099       2.71432355      -2.71376790       0.00000000
Si      -2.71254957      -2.71596654       0.00095899       0.00000000
Si       0.00143841      -2.71562445      -2.71352815       0.00000000
