10
Lattice="16.28999089631971 0.0 0.0 0.0 16.28999089631971 0.0 0.0 0.0 34.529650657227435" Properties=species:S:1:pos:R:3:initial_magmoms:R:1 pbc="T T T"
Si       1.34648509       1.34724816       1.37907013       0.00000000
Si      -1.36649454      -1.37058521       1.37164625       0.00000000
Si       1.34699334      -1.40197442      -1.39113480       0.00000000
Si      -1.43185002       1.29169926      -1.43882718       0.00000000
Si      -0.46176423      -2.45821313      -2.54491264       0.00000000
Si      -2.19109434      -0.61276464      -2.80998107       0.00000000
Si       2.69483771       2.67977016       0.00011049       0.00000000
Si      -0.01111606       2.70133812       2.73543009       0.00000000
Si       2.70254288      -0.01045818       2.73653504       0.00000000
Si      -2.74809831       2.69104284       0.00388459       0.00000000
