10
Lattice="16.28999089631971 0.0 0.0 0.0 16.28999089631971 0.0 0.0 0.0 34.529650657227435" Properties=species:S:1:pos:R:3:initial_magmoms:R:1 pbc="T T T"
Si      -0.09077928       1.16279649      -2.01660178       0.00000000
Si       1.00630986      -2.09595285      -0.27005655       0.00000000
Si      -1.96859341      -0.35474733       1.25007764       0.00000000
Si       1.27801077       1.23823548       1.55683923       0.00000000
Si       2.33282085       1.17201663      -2.14190996       0.00000000
Si      -1.86749767       2.69361666      -1.31896433       0.00000000
Si      -2.09938582       1.70583993       2.46673056       0.00000000
Si       2.69918295      -1.25369469      -2.19746820       0.00000000
Si      -3.64418281      -0.73990809      -0.32150576       0.00000000
Si       1.11662574       0.10218717       3.62461398       0.00000000
