10
Lattice="16.28999089631971 0.0 0.0 0.0 16.28999089631971 0.0 0.0 0.0 34.529650657227435" Properties=species:S:1:pos:R:3:initial_magmoms:R:1 pbc="T T T"
Si       1.43436708       1.31059566       1.43224034       0.00000000
Si      -1.30111162      -1.36466217       1.50940379       0.00000000
Si      -1.46056954       1.63664001      -1.20667385       0.00000000
Si       0.21926340      -1.60122555      -1.92226673       0.00000000
Si      -1.05104709       0.07708428      -3.16519673       0.00000000
Si       2.48616351      -2.81944062      -0.03836246       0.00000000
Si      -1.29559746      -3.32195454      -1.27676908       0.00000000
Si       0.01598049       2.60488849       2.91531038       0.00000000
Si      -2.84499053      -2.70731655       0.29266869       0.00000000
Si       2.46260817       3.11010702       0.13017686       0.00000000
