10
Lattice="16.28999089631971 0.0 0.0 0.0 16.28999089631971 0.0 0.0 0.0 34.529650657227435" Properties=species:S:1:pos:R:3:initial_magmoms:R:1 pbc="T T T"
Si      -2.09222963      -0.98137476      -0.37834159       0.00000000
Si       0.63369729       0.92051532      -2.12809809       0.00000000
Si       1.27031049      -1.67830983       1.24293000       0.00000000
Si      -0.40952245       1.55955573       1.95852288       0.00000000
Si       1.05104709      -0.07708428       3.16519673       0.00000000
Si      -1.18601300       0.14183703      -3.52119762       0.00000000
Si      -1.59053736      -2.87914347      -1.81746918       0.00000000
Si      -3.12838766       0.16423578      -2.17412614       0.00000000
Si      -0.24455037      -3.39903882       1.88842765       0.00000000
Si       0.40233042       3.34941201      -2.04595200       0.00000000
