10
Lattice="16.28999089631971 0.0 0.0 0.0 16.28999089631971 0.0 0.0 0.0 34.529650657227435" Properties=species:S:1:pos:R:3:initial_magmoms:R:1 pbc="T T T"
Si      -1.35760860      -1.35728236       1.35770662       0.00000000
Si       1.35796698       1.35781171       1.35819004       0.00000000
Si      -1.35811359       1.35818149      -1.36033088       0.00000000
Si       1.35729909      -1.35834121      -1.36216095       0.00000000
Si       2.71484253      -2.71407646       0.00027624       0.00000000
Si       2.71396287       2.71561579       0.00096683       0.00000000
Si       0.00105885       2.71545289       2.71437736       0.00000000
Si       2.71487511       0.00014915       2.71496436       0.00000000
Si      -0.00013032      -2.71422307       2.71562042       0.00000000
Si      -2.71513575      -0.00003222       2.71534419       0.00000000
