10
Lattice="16.28999089631971 0.0 0.0 0.0 16.28999089631971 0.0 0.0 0.0 34.529650657227435" Properties=species:S:1:pos:R:3:initial_magmoms:R:1 pbc="T T T"
Si       1.35477414       1.35835794       1.35535861       0.00000000
Si       1.35690813      -1.35764118      -1.35618732       0.00000000
Si      -1.35804843       1.35711990      -1.35673979       0.00000000
Si      -1.35669636      -1.35968232       1.35846628       0.00000000
Si       0.00386073       2.70811476       2.71068268       0.00000000
Si       2.71290402       0.00016290      -2.71341052       0.00000000
Si       2.71378368       2.71378368       0.00000000       0.00000000
Si       0.00057015       2.71391400      -2.71379035       0.00000000
Si      -0.00242721      -2.71452392       2.71354864       0.00000000
Si       2.71381626      -2.71530373       0.00058700       0.00000000
