10
Lattice="16.28999089631971 0.0 0.0 0.0 16.28999089631971 0.0 0.0 0.0 34.529650657227435" Properties=species:S:1:pos:R:3:initial_magmoms:R:1 pbc="T T T"
Si      -1.35690813       1.35764118       1.35618732       0.00000000
Si       1.35599589       1.35780408      -1.35722321       0.00000000
Si       1.35690813      -1.35766255       1.35677432       0.00000000
Si      -1.35796698      -1.35781171      -1.35819004       0.00000000
Si      -0.00213399       2.71599912       2.71154592       0.00000000
Si       2.71401174      -0.00205417       2.71417018       0.00000000
Si      -2.71360449      -0.00204114       2.71465359       0.00000000
Si      -0.00185706      -2.71440989       2.71423924       0.00000000
Si       2.71454931       2.71484253       0.00003453       0.00000000
Si      -2.71495656       2.71476108      -0.00055247       0.00000000
