10
Lattice="16.28999089631971 0.0 0.0 0.0 16.28999089631971 0.0 0.0 0.0 34.529650657227435" Properties=species:S:1:pos:R:3:initial_magmoms:R:1 pbc="T T T"
Si       1.44725247      -1.27804824       1.42455261       0.00000000
Si      -1.66553847      -0.87130323      -1.49186272       0.00000000
Si      -1.25493273       1.44607959       1.45107485       0.00000000
Si       1.34464176       1.19795031      -1.62431853       0.00000000
Si      -0.47218194       0.97208946      -3.26192266       0.00000000
Si      -3.43948689       0.73801845      -1.20171608       0.00000000
Si      -2.62330902       2.66401773      -0.01394653       0.00000000
Si       2.65818591       2.63274093      -0.06133851       0.00000000
Si      -2.66253534      -2.68776855      -0.02956776       0.00000000
Si       0.08319303      -2.62168002       2.81441671       0.00000000
