10
Lattice="16.28999089631971 0.0 0.0 0.0 16.28999089631971 0.0 0.0 0.0 34.529650657227435" Properties=species:S:1:pos:R:3:initial_magmoms:R:1 pbc="T T T"
Si      -1.98417087      -1.21953456       0.15552163       0.00000000
Si       2.12636628      -0.99986391       0.19813125       0.00000000
Si      -0.33884829       1.87440885       1.49962357       0.00000000
Si       0.28895202       0.13403412      -2.41538494       0.00000000
Si       3.46745682       0.96541056      -0.33725129       0.00000000
Si      -0.66124368       3.61989864      -0.04654600       0.00000000
Si      -3.33371592      -0.51997680      -1.68573849       0.00000000
Si      -1.46219040      -3.48503373      -0.17558337       0.00000000
Si       2.35519191      -2.60841996      -1.54036858       0.00000000
Si       0.75543246       2.35120086      -2.95100918       0.00000000
