10
Lattice="16.28999089631971 0.0 0.0 0.0 16.28999089631971 0.0 0.0 0.0 34.529650657227435" Properties=species:S:1:pos:R:3:initial_magmoms:R:1 pbc="T T T"
Si       1.39598784       0.68226267      -1.76584732       0.00000000
Si      -0.48768187      -2.32052909       0.44401703       0.00000000
Si       1.44513477       0.79417497       1.82779355       0.00000000
Si      -2.14259831       0.97312062      -0.87335894       0.00000000
Si      -2.17807793      -1.07153828       2.01931378       0.00000000
Si      -0.36932036      -0.01529957       3.17309163       0.00000000
Si       0.72145152       3.01298700      -1.84554180       0.00000000
Si       0.32417100      -0.53067281      -3.56045786       0.00000000
Si      -1.45691896       3.28815768      -0.81431321       0.00000000
Si      -2.04259400       0.07006492      -3.09389296       0.00000000
