10
Lattice="16.28999089631971 0.0 0.0 0.0 16.28999089631971 0.0 0.0 0.0 34.529650657227435" Properties=species:S:1:pos:R:3:initial_magmoms:R:1 pbc="T T T"
Si       0.49653549      -0.77658081       2.14422344       0.00000000
Si       0.47918664      -1.51251414      -1.80845693       0.00000000
Si      -2.38615920      -0.36056286       0.28210740       0.00000000
Si       0.88462845       2.34698501      -0.18449203       0.00000000
Si      -2.97302274       0.01503567      -1.92036759       0.00000000
Si      -1.39486383       1.41301415      -2.95760435       0.00000000
Si      -2.94756147       1.67419172       1.21185330       0.00000000
Si      -0.00723276      -3.07340565       2.00095984       0.00000000
Si       0.14876028      -0.18412587      -3.71898357       0.00000000
Si      -0.75297267       3.27834947      -1.64651278       0.00000000
