10
Lattice="16.28999089631971 0.0 0.0 0.0 16.28999089631971 0.0 0.0 0.0 34.529650657227435" Properties=species:S:1:pos:R:3:initial_magmoms:R:1 pbc="T T T"
Si      -1.42188894       0.70216416       1.77109583       0.00000000
Si       0.16808022       2.27028843      -0.87878010       0.00000000
Si       0.08105904      -1.00375722      -2.33952326       0.00000000
Si       1.27524636      -1.72599066       1.65735510       0.00000000
Si      -3.23871264       0.47630331       0.13349170       0.00000000
Si       2.13467418       0.05554890      -2.98840482       0.00000000
Si       2.40831360      -2.93431770      -0.35496501       0.00000000
Si       1.30306968       2.25051237      -2.90853769       0.00000000
Si      -0.10834479       2.13695478       3.33407586       0.00000000
Si       1.83456351       3.51795582       0.12095743       0.00000000
