10
Lattice="16.28999089631971 0.0 0.0 0.0 16.28999089631971 0.0 0.0 0.0 34.529650657227435" Properties=species:S:1:pos:R:3:initial_magmoms:R:1 pbc="T T T"
Si       2.16712386      -0.76722642       0.21829657       0.00000000
Si      -0.57521619       1.98524601       1.11827789       0.00000000
Si       0.42231825       0.83753406      -2.21456038       0.00000000
Si      -1.34109054      -1.96527447       0.53538253       0.00000000
Si      -1.98511569       2.66791104      -0.71058608       0.00000000
Si       0.82837908      -1.23619923      -3.18104584       0.00000000
Si       2.31409224      -2.22138585      -1.59744612       0.00000000
Si      -3.46745682      -0.96541056       0.33725129       0.00000000
Si      -1.77217281       1.31461929       2.99624305       0.00000000
Si      -3.17850480      -0.83137644      -2.07813366       0.00000000
