10
Lattice="16.28999089631971 0.0 0.0 0.0 16.28999089631971 0.0 0.0 0.0 34.529650657227435" Properties=species:S:1:pos:R:3:initial_magmoms:R:1 pbc="T T T"
Si       0.34319772       2.22005007      -0.63358491       0.00000000
Si      -2.14358481      -0.01342296       1.00129137       0.00000000
Si      -0.72690867      -1.28212074      -1.90317182       0.00000000
Si       1.40989950      -0.68266503       1.82886397       0.00000000
Si       2.40743394      -1.83037698      -1.50397430       0.00000000
Si       1.98511569      -2.66791104       0.71058608       0.00000000
Si      -1.14171723       2.07572067      -2.46414084       0.00000000
Si      -2.52807768       0.11719026      -2.46800816       0.00000000
Si      -0.36887076       3.32566119       1.29337785       0.00000000
Si      -1.82118942      -1.75891275       2.54746093       0.00000000
