10
Lattice="16.28999089631971 0.0 0.0 0.0 16.28999089631971 0.0 0.0 0.0 34.529650657227435" Properties=species:S:1:pos:R:3:initial_magmoms:R:1 pbc="T T T"
Si      -0.71206848       1.10561112       1.92696276       0.00000000
Si      -0.34319772      -2.22005007       0.63358491       0.00000000
Si       2.22801588       0.73451610      -0.09744273       0.00000000
Si      -1.48491495      -0.14432940      -1.83055592       0.00000000
Si      -2.62474254      -0.09673002       2.60547078       0.00000000
Si      -2.48678253      -2.23347303       1.63487628       0.00000000
Si      -0.61667424       3.42493082       1.39375560       0.00000000
Si       3.19479480       0.31711743       2.02374943       0.00000000
Si       3.35578887      -0.29572866      -1.88366256       0.00000000
Si      -1.07010639      -3.50217081      -1.26958690       0.00000000
