10
Lattice="16.28999089631971 0.0 0.0 0.0 16.28999089631971 0.0 0.0 0.0 34.529650657227435" Properties=species:S:1:pos:R:3:initial_magmoms:R:1 pbc="T T T"
Si      -0.49225122      -0.44841483       2.24028499       0.00000000
Si       1.53762939       1.77992685       0.13728997       0.00000000
Si      -1.88467155       1.15675290      -0.82791790       0.00000000
Si       0.53644599      -1.92595041      -1.36613186       0.00000000
Si       3.62768526       0.79462620      -0.10030869       0.00000000
Si      -1.49768631      -2.33157141      -2.52550006       0.00000000
Si       1.20720303       3.10831512      -1.77323667       0.00000000
Si      -1.05922467      -2.69702127       2.42439719       0.00000000
Si      -1.91457999       3.30747666       0.02537931       0.00000000
Si       1.73340261      -1.25532369      -3.24409702       0.00000000
