10
Lattice="16.28999089631971 0.0 0.0 0.0 16.28999089631971 0.0 0.0 0.0 34.529650657227435" Properties=species:S:1:pos:R:3:initial_magmoms:R:1 pbc="T T T"
Si      -1.17397143       0.03269403      -2.02081440       0.00000000
Si      -0.58168332       1.70116470       1.51882206       0.00000000
Si      -0.21458817      -2.07945827       1.22714994       0.00000000
Si       1.90437172       0.93586050      -1.33111878       0.00000000
Si       1.56925547       2.68563456       1.39793369       0.00000000
Si       0.81498870       0.69498027      -3.40124155       0.00000000
Si       3.38376599       1.09654506       0.74756735       0.00000000
Si       0.19029978      -1.36596537       3.47005918       0.00000000
Si      -0.97505424       0.67293990       3.59391711       0.00000000
Si       1.68997903       3.36026862      -0.88482279       0.00000000
