10
Lattice="16.28999089631971 0.0 0.0 0.0 16.28999089631971 0.0 0.0 0.0 34.529650657227435" Properties=species:S:1:pos:R:3:initial_magmoms:R:1 pbc="T T T"
Si      -2.24402895       0.78071454       0.01374281       0.00000000
Si       0.68036814      -1.38095217       1.84574898       0.00000000
Si      -0.48653343      -1.48322079      -1.86498200       0.00000000
Si       1.66239028       1.79499510      -0.22337243       0.00000000
Si      -2.52802881       2.02481442      -1.95465556       0.00000000
Si      -2.42478279       2.32137387       1.75162110       0.00000000
Si      -3.63964212      -1.15393473      -0.11550175       0.00000000
Si       2.63672125      -2.57326125       1.01334222       0.00000000
Si      -1.24497954      -2.25121284       2.94185882       0.00000000
Si      -0.09316251      -0.45499599      -3.94007705       0.00000000
