10
Lattice="16.28999089631971 0.0 0.0 0.0 16.28999089631971 0.0 0.0 0.0 34.529650657227435" Properties=species:S:1:pos:R:3:initial_magmoms:R:1 pbc="T T T"
Si       2.27744693      -0.26834517      -0.12026684       0.00000000
Si      -0.53002773       2.25368892       0.01381187       0.00000000
Si      -0.76672143      -1.05186159      -2.02260995       0.00000000
Si      -1.21678155      -0.45577791       2.05679432       0.00000000
Si      -3.29631408      -0.38732733       0.79411335       0.00000000
Si      -2.89937565       1.83075165      -0.12413416       0.00000000
Si      -2.69206911      -1.92212226      -0.92650010       0.00000000
Si       2.81509838      -0.61357914      -2.45333305       0.00000000
Si       1.18963168      -2.24417067      -2.85501670       0.00000000
Si       2.97161270      -2.31866484       0.65299059       0.00000000
