10
Lattice="16.28999089631971 0.0 0.0 0.0 16.28999089631971 0.0 0.0 0.0 34.529650657227435" Properties=species:S:1:pos:R:3:initial_magmoms:R:1 pbc="T T T"
Si      -2.32806906      -0.29830331      -0.48631587       0.00000000
Si       1.59171219      -0.21592478      -1.82806979       0.00000000
Si      -0.52975080      -1.62044858       1.86850403       0.00000000
Si       0.71521245       2.09750675       1.25480821       0.00000000
Si       2.16152010      -2.48347649      -1.83794527       0.00000000
Si       3.32547318       1.30243747      -1.24320624       0.00000000
Si      -1.98873207      -0.11249957       3.26664490       0.00000000
Si      -1.03086378      -3.69162434       0.41877584       0.00000000
Si      -2.82460455       0.47827750      -2.63053932       0.00000000
Si      -2.83183731      -2.59512815      -0.62957947       0.00000000
