10
Lattice="16.28999089631971 0.0 0.0 0.0 16.28999089631971 0.0 0.0 0.0 34.529650657227435" Properties=species:S:1:pos:R:3:initial_magmoms:R:1 pbc="T T T"
Si      -1.35632169      -1.35542574      -1.35705056       0.00000000
Si       1.35860229       1.35923760      -1.35708509       0.00000000
Si       1.36337526      -1.36234899       1.35283794       0.00000000
Si      -1.36549296       1.36475991       1.35383930       0.00000000
Si       2.71692765      -0.01830996       2.70467452       0.00000000
Si       2.71428867      -2.71210581      -0.00248614       0.00000000
Si      -2.71409971      -2.71324611       0.00031077       0.00000000
Si       0.00146610      -2.71334385      -2.71458453       0.00000000
Si      -2.71402314       0.00198738      -2.71465359       0.00000000
Si       2.71466334       2.71464705       0.00155384       0.00000000
