10
Lattice="16.28999089631971 0.0 0.0 0.0 16.28999089631971 0.0 0.0 0.0 34.529650657227435" Properties=species:S:1:pos:R:3:initial_magmoms:R:1 pbc="T T T"
Si       1.35711990      -1.35685926      -1.35746491       0.00000000
Si      -1.35928647      -1.35676152       1.35632544       0.00000000
Si      -1.35788553       1.35804843      -1.35763756       0.00000000
Si       1.35804843       1.35943308       1.35787927       0.00000000
Si       2.71448778      -2.71409319       0.00027624       0.00000000
Si      -2.71538010      -2.71404432      -0.00044889       0.00000000
Si       2.71494187      -0.00159642      -2.71475718       0.00000000
Si      -0.00153126       2.71454931      -2.71541325       0.00000000
Si      -0.00276930      -2.71492398      -2.71517154       0.00000000
Si      -2.71629234      -0.00105885      -2.71482624       0.00000000
