10
Lattice="16.28999089631971 0.0 0.0 0.0 16.28999089631971 0.0 0.0 0.0 34.529650657227435" Properties=species:S:1:pos:R:3:initial_magmoms:R:1 pbc="T T T"
Si       1.35593073       1.33499808      -1.39928035       0.00000000
Si      -1.36811565      -1.36849032      -1.38712590       0.00000000
Si       1.36322865      -1.42425099       1.38781649       0.00000000
Si      -0.86219712       2.00710719       1.31768674       0.00000000
Si       2.70948312       2.67903711      -0.04744377       0.00000000
Si       2.68307703      -2.72735162      -0.05631789       0.00000000
Si      -2.71202925       2.70861975      -0.02261693       0.00000000
Si      -0.00744453       2.69734707      -2.75211828       0.00000000
Si       2.70684414      -0.01475874      -2.75460442       0.00000000
Si      -2.72154424      -0.01589904      -2.75180752       0.00000000
