10
Lattice="16.28999089631971 0.0 0.0 0.0 16.28999089631971 0.0 0.0 0.0 34.529650657227435" Properties=species:S:1:pos:R:3:initial_magmoms:R:1 pbc="T T T"
Si      -1.88185338      -0.81497241      -1.20708820       0.00000000
Si      -0.87498477       0.59548095       2.16145375       0.00000000
Si       1.55988153      -1.88432946       0.17603226       0.00000000
Si       1.08883989       1.94510745      -1.14476215       0.00000000
Si       0.26494056       2.65875606       1.98897805       0.00000000
Si       2.36843568       2.57916312       0.82063214       0.00000000
Si      -2.64526794      -2.64961737       0.17364971       0.00000000
Si      -0.84699855      -1.69249842      -3.31191329       0.00000000
Si       3.71082032      -0.89985960       0.05514388       0.00000000
Si       1.16651061      -2.91255426       2.25112730       0.00000000
