10
Lattice="16.28999089631971 0.0 0.0 0.0 16.28999089631971 0.0 0.0 0.0 34.529650657227435" Properties=species:S:1:pos:R:3:initial_magmoms:R:1 pbc="T T T"
Si      -1.84671585       1.40066307      -0.13387153       0.00000000
Si      -0.73461384      -1.72061496       1.40732576       0.00000000
Si      -0.12320127      -0.88102836      -2.18911202       0.00000000
Si       1.30562462       1.71452250       1.03720223       0.00000000
Si       2.37793994       1.55922993      -1.15864308       0.00000000
Si       1.42331987       0.61781454      -3.15539030       0.00000000
Si      -2.49254919      -1.30396563      -2.32705805       0.00000000
Si      -0.80995509      -3.59049519      -0.14612956       0.00000000
Si      -2.73307104      -0.80490519       2.43372020       0.00000000
Si       0.40682646      -3.13471728      -2.20292388       0.00000000
