10
Lattice="16.28999089631971 0.0 0.0 0.0 16.28999089631971 0.0 0.0 0.0 34.529650657227435" Properties=species:S:1:pos:R:3:initial_magmoms:R:1 pbc="T T T"
Si       1.35376436      -1.35353610      -1.35901875       0.00000000
Si      -1.37020124      -1.33990137       1.36658075       0.00000000
Si      -1.36016660       1.36262592      -1.35839722       0.00000000
Si       1.36327934       1.37098269       1.37017183       0.00000000
Si       2.70719294      -2.70612738       0.00566287       0.00000000
Si      -2.71453349      -2.71148679       0.00227896       0.00000000
Si       2.70237110       2.72446992      -0.00549022       0.00000000
Si      -0.00372726      -2.71090035      -2.71600025       0.00000000
Si       2.71154237       0.00428427      -2.71638008       0.00000000
Si      -2.71821503       0.00319284      -2.71627649       0.00000000
