10
Lattice="16.28999089631971 0.0 0.0 0.0 16.28999089631971 0.0 0.0 0.0 34.529650657227435" Properties=species:S:1:pos:R:3:initial_magmoms:R:1 pbc="T T T"
Si      -1.36262592      -1.89706824      -0.52733712       0.00000000
Si      -0.08288352       1.18586313      -2.16207528       0.00000000
Si       2.03749197      -1.48181985       0.47316007       0.00000000
Si      -1.16646174       1.28567196       1.89871749       0.00000000
Si      -2.53752588      -2.26189908       1.42227711       0.00000000
Si      -0.89555904      -0.48441573      -3.61356449       0.00000000
Si      -2.94358671      -0.18816579       2.38876257       0.00000000
Si      -2.65448808      -1.47400065      -2.40616552       0.00000000
Si       0.50912766       1.67083272       3.47030089       0.00000000
Si       2.47772107       2.02558005       2.22022325       0.00000000
