10
Lattice="16.28999089631971 0.0 0.0 0.0 16.28999089631971 0.0 0.0 0.0 34.529650657227435" Properties=species:S:1:pos:R:3:initial_magmoms:R:1 pbc="T T T"
Si       1.33909176       1.35348723      -1.37566205       0.00000000
Si      -1.36327934      -1.37098269      -1.37017183       0.00000000
Si       1.84983213      -0.70151256       1.34030367       0.00000000
Si      -1.37061522       1.26381078       1.51170895       0.00000000
Si       0.96481272       0.11337840       3.42541232       0.00000000
Si       2.70487794       2.71101438      -0.00528304       0.00000000
Si      -2.71917797       2.69799867       0.02082139       0.00000000
Si       2.71202925      -2.70861975       0.02261693       0.00000000
Si       2.70458472      -0.01127268      -2.72950135       0.00000000
Si      -0.01015030       2.70400968      -2.73067536       0.00000000
