10
Lattice="16.28999089631971 0.0 0.0 0.0 16.28999089631971 0.0 0.0 0.0 34.529650657227435" Properties=species:S:1:pos:R:3:initial_magmoms:R:1 pbc="T T T"
Si       0.28520532       1.96372692      -1.28719704       0.00000000
Si      -1.84288770      -1.25610561      -0.84849758       0.00000000
Si       2.04025734      -1.23492861       0.21239200       0.00000000
Si       0.05139495       0.79384428       2.29529075       0.00000000
Si       2.47656870       1.51576821      -1.88314461       0.00000000
Si       3.55434768       0.56873277       0.02610443       0.00000000
Si      -2.03866092       1.77914493       2.53288941       0.00000000
Si      -3.03984432      -1.92673233       1.02946758       0.00000000
Si       2.06977482      -2.27457270       2.34083539       0.00000000
Si      -0.34771005       3.92105417      -0.13242128       0.00000000
