10
Lattice="16.28999089631971 0.0 0.0 0.0 16.28999089631971 0.0 0.0 0.0 34.529650657227435" Properties=species:S:1:pos:R:3:initial_magmoms:R:1 pbc="T T T"
Si      -1.19953044       0.11611512       2.02599385       0.00000000
Si       0.85845042      -2.19445848      -0.31266616       0.00000000
Si      -1.78043184       0.24625593      -1.61733521       0.00000000
Si       1.75529637       1.68588468      -0.24754320       0.00000000
Si      -2.84709778      -1.32408378       1.05874874       0.00000000
Si      -0.08755875       1.08851409      -3.54474686       0.00000000
Si      -1.67011596       2.44439595       2.27733532       0.00000000
Si      -2.78674170       2.34220878      -1.34727866       0.00000000
Si       0.77512707       3.80612592      -0.03004081       0.00000000
Si      -1.50873093       3.58044426       0.20956057       0.00000000
