10
Lattice="16.28999089631971 0.0 0.0 0.0 16.28999089631971 0.0 0.0 0.0 34.529650657227435" Properties=species:S:1:pos:R:3:initial_magmoms:R:1 pbc="T T T"
Si       0.50200893       2.20902174      -0.54235753       0.00000000
Si       1.86481404      -1.40942709       0.50955434       0.00000000
Si      -0.95462006      -0.94141539      -1.99674722       0.00000000
Si      -1.07231531       0.15529257       2.19584530       0.00000000
Si      -2.37793994      -1.55922993       1.15864308       0.00000000
Si       1.04544333      -1.86864219      -2.81796636       0.00000000
Si      -1.57935460       3.20570910      -0.21926340       0.00000000
Si      -2.50114121      -2.44025829      -1.03046894       0.00000000
Si       0.80751159      -0.28010655       3.55251603       0.00000000
Si       3.61628226      -0.17884791      -0.60537417       0.00000000
