10
Lattice="16.28999089631971 0.0 0.0 0.0 16.28999089631971 0.0 0.0 0.0 34.529650657227435" Properties=species:S:1:pos:R:3:initial_magmoms:R:1 pbc="T T T"
Si      -1.54939307       0.61463799       1.56943776       0.00000000
Si       0.35634864      -2.27879181      -0.07586168       0.00000000
Si       1.51486086       1.72072899      -0.64549765       0.00000000
Si       2.30321541      -0.03329676      -2.32581498       0.00000000
Si      -2.94784070       1.59254298      -0.18535527       0.00000000
Si       1.30812447      -2.23270740      -2.16842874       0.00000000
Si      -0.00551416       1.95729237       2.78617287       0.00000000
Si       1.29559746       3.32195454       1.27676908       0.00000000
Si       1.85822148      -2.91915171       1.55148095       0.00000000
Si      -1.84767926       2.41766406      -2.26676924       0.00000000
