10
Lattice="16.28999089631971 0.0 0.0 0.0 16.28999089631971 0.0 0.0 0.0 34.529650657227435" Properties=species:S:1:pos:R:3:initial_magmoms:R:1 pbc="T T T"
Si      -1.35547624      -1.35615879       1.35739586       0.00000000
Si       1.35940050       1.35878148       1.35732680       0.00000000
Si      -1.35694560       1.36216980      -1.35777568       0.00000000
Si       1.36031274      -1.35738054      -1.36285154       0.00000000
Si      -2.71194941       2.71548868       0.00041436       0.00000000
Si      -2.71274049       0.00107514       2.71479171       0.00000000
Si       0.00114030      -2.71420722       2.71406659       0.00000000
Si      -2.71322572      -2.71526607       0.00120854       0.00000000
Si       0.00187335       2.71603162       2.71496436       0.00000000
Si       2.71687878       0.00184077       2.71524060       0.00000000
