10
Lattice="16.28999089631971 0.0 0.0 0.0 16.28999089631971 0.0 0.0 0.0 34.529650657227435" Properties=species:S:1:pos:R:3:initial_magmoms:R:1 pbc="T T T"
Si       1.34965908       1.35562122      -1.39068246       0.00000000
Si      -1.36115982      -1.35889551      -1.38388011       0.00000000
Si      -1.42904025       1.32222672       1.43173823       0.00000000
Si       1.33876107      -1.42099299       1.49713743       0.00000000
Si      -0.67665402      -2.34414729       2.60571248       0.00000000
Si      -2.38430214      -0.45533808       2.80881600       0.00000000
Si       2.68309332       2.71591020      -0.05058597       0.00000000
Si      -2.73628994       2.70152287      -0.01336298       0.00000000
Si       2.71342530      -2.73013884       0.00407450       0.00000000
Si       2.70713736      -0.00190593      -2.74617918       0.00000000
