10
Lattice="16.28999089631971 0.0 0.0 0.0 16.28999089631971 0.0 0.0 0.0 34.529650657227435" Properties=species:S:1:pos:R:3:initial_magmoms:R:1 pbc="T T T"
Si       1.35366642      -1.35979146      -1.36188471       0.00000000
Si      -1.36218120       1.35578412      -1.36305872       0.00000000
Si       1.36115982       1.35889551       1.38388011       0.00000000
Si      -1.38590433      -1.36839258       1.36171206       0.00000000
Si       2.71081890       2.71451673      -0.00680234       0.00000000
Si      -2.71568051       2.71219028      -0.00521398       0.00000000
Si      -2.71591549      -2.71428867      -0.00566287       0.00000000
Si       2.71205694      -0.00063531      -2.71910792       0.00000000
Si       2.71696023      -2.71495656      -0.00065606       0.00000000
Si      -0.00294849       2.71355554      -2.71938416       0.00000000
