10
Lattice="16.28999089631971 0.0 0.0 0.0 16.28999089631971 0.0 0.0 0.0 34.529650657227435" Properties=species:S:1:pos:R:3:initial_magmoms:R:1 pbc="T T T"
Si       1.25631738       1.43376435       1.45839514       0.00000000
Si      -2.42360014      -0.00922014       0.12530817       0.00000000
Si       0.36636210      -2.42571132      -0.05555824       0.00000000
Si      -1.26711765      -0.08601120      -2.28873011       0.00000000
Si       2.38764159       1.39663944      -1.22183237       0.00000000
Si       0.44053047      -1.97482041      -2.49183363       0.00000000
Si      -2.33282085      -1.17201663       2.14190996       0.00000000
Si       1.22904792       0.29190051       3.45914781       0.00000000
Si      -1.05481008       0.06621885       3.69874919       0.00000000
Si       1.04943438       3.05661229      -2.26970427       0.00000000
