10
Lattice="16.28999089631971 0.0 0.0 0.0 16.28999089631971 0.0 0.0 0.0 34.48637585096406" Properties=species:S:1:pos:R:3:initial_magmoms:R:1 pbc="T T T"
Si      -1.35068602      -1.35293071      -1.38421493       0.00000000
Si       1.36046587       1.36524861      -1.38300790       0.00000000
Si       1.37312320      -1.33040625       1.50398618       0.00000000
Si      -1.55595631       1.21819878       1.43718603       0.00000000
Si       2.70676921      -2.68088507      -0.02127811       0.00000000
Si      -2.69755951      -2.73105827      -0.02245064       0.00000000
Si      -2.73062821       2.70355356      -0.01669142       0.00000000
Si       2.71778125       2.72171691       0.00124151       0.00000000
Si       0.00390308      -2.71035368      -2.74570332       0.00000000
Si      -2.71362145       0.00483650      -2.74573781       0.00000000
