10
Lattice="16.28999089631971 0.0 0.0 0.0 16.28999089631971 0.0 0.0 0.0 34.48637585096406" Properties=species:S:1:pos:R:3:initial_magmoms:R:1 pbc="T T T"
Si       1.11583242       1.56663536      -1.35591681       0.00000000
Si       1.33270119      -1.36900901       1.42128435       0.00000000
Si      -1.40545233       1.33624589       1.40090289       0.00000000
Si      -0.77296050      -1.71596972      -1.48199907       0.00000000
Si      -0.76216023       3.42734432      -1.37867783       0.00000000
Si       2.30531193      -0.31654076      -3.00629774       0.00000000
Si       2.70537804      -2.67642812       0.00954239       0.00000000
Si       2.72168433       2.70900419      -0.03672801       0.00000000
Si       2.68338654      -0.01998294       2.78374181       0.00000000
Si       1.01279817      -3.48037220      -1.35953788       0.00000000
