10
Lattice="16.28999089631971 0.0 0.0 0.0 16.28999089631971 0.0 0.0 0.0 34.48637585096406" Properties=species:S:1:pos:R:3:initial_magmoms:R:1 pbc="T T T"
Si       0.63993636      -2.19694175      -0.48084381       0.00000000
Si       1.98920448       1.43602866      -0.08835414       0.00000000
Si      -1.39654170      -0.19745109      -2.14532967       0.00000000
Si      -1.34480466      -0.03683169       2.21185392       0.00000000
Si       1.47044943       2.18564559      -2.33383230       0.00000000
Si      -2.57331501      -2.02313476       1.67107276       0.00000000
Si      -1.11019608      -3.51042074       0.51398523       0.00000000
Si      -3.49171263       1.08887247      -0.79718751       0.00000000
Si       2.37713454      -2.80196864       0.92851170       0.00000000
Si       0.19679949       0.68147586      -3.76032755       0.00000000
