10
Lattice="16.28999089631971 0.0 0.0 0.0 16.28999089631971 0.0 0.0 0.0 34.48637585096406" Properties=species:S:1:pos:R:3:initial_magmoms:R:1 pbc="T T T"
Si      -0.08118936      -0.68707962       2.25565165       0.00000000
Si       1.37047770      -1.29381696      -1.42701254       0.00000000
Si       1.01600730       2.13027588       0.25392333       0.00000000
Si      -2.28433041       0.11873781      -0.74852721       0.00000000
Si       2.00534787      -1.72643375       2.25927272       0.00000000
Si      -1.88853228      -1.28660049      -2.69114584       0.00000000
Si      -0.78988581       3.23178939       1.18398692       0.00000000
Si      -2.77891110       2.23708941       0.34379487       0.00000000
Si       0.40718484      -0.92476701      -3.49202340       0.00000000
Si       3.51453492      -0.20587302       1.18433178       0.00000000
