10
Lattice="16.28999089631971 0.0 0.0 0.0 16.28999089631971 0.0 0.0 0.0 34.48637585096406" Properties=species:S:1:pos:R:3:initial_magmoms:R:1 pbc="T T T"
Si      -1.35819504       1.35449721      -1.35641889       0.00000000
Si       1.35791811       1.35555606       1.35728105       0.00000000
Si      -1.35705474      -1.35928647       1.35703965       0.00000000
Si       1.35659862      -1.36013355      -1.36286785       0.00000000
Si       0.00004887       2.69347005      -2.73089831       0.00000000
Si      -2.71261080       2.71225242       0.00003449       0.00000000
Si       0.00026064       2.71321353       2.71480351       0.00000000
Si      -2.71463076      -0.00200367       2.71463108       0.00000000
Si       2.71518462      -0.00193851       2.71473454       0.00000000
Si       0.00034209      -2.71655298       2.71463108       0.00000000
