10
Lattice="16.28999089631971 0.0 0.0 0.0 16.28999089631971 0.0 0.0 0.0 34.48637585096406" Properties=species:S:1:pos:R:3:initial_magmoms:R:1 pbc="T T T"
Si       0.01247814      -0.97484247       2.16891836       0.00000000
Si      -0.59636061      -1.62448767      -1.66548597       0.00000000
Si       2.16872028       1.14748389      -0.06366189       0.00000000
Si      -1.75760955       1.99651869      -0.36279688       0.00000000
Si       0.51570882       1.22359077       2.88802867       0.00000000
Si      -0.63951282       2.86207155       1.58351180       0.00000000
Si       1.49017662      -2.66384180      -1.66186489       0.00000000
Si       2.45558718       1.09701747      -2.34890286       0.00000000
Si      -3.55998402       0.43914582       0.17577716       0.00000000
Si       1.57898970       3.41024634       0.51415766       0.00000000
