10
Lattice="16.28999089631971 0.0 0.0 0.0 16.28999089631971 0.0 0.0 0.0 34.48637585096406" Properties=species:S:1:pos:R:3:initial_magmoms:R:1 pbc="T T T"
Si      -1.22851035      -1.98630307      -0.54078116       0.00000000
Si       1.64307456      -0.05976801       1.77867031       0.00000000
Si      -1.97146467       1.33960815       0.53778085       0.00000000
Si       1.34480466       0.03683169      -2.21185392       0.00000000
Si      -2.95584005      -1.11020585      -1.95986183       0.00000000
Si      -2.14690797       1.12570416      -3.00904143       0.00000000
Si       0.23460858      -3.47358905      -1.69786869       0.00000000
Si      -1.49887548       2.58761763       2.49653912       0.00000000
Si      -2.45755827       2.88210825      -1.20395454       0.00000000
Si       1.98474102      -2.16011006      -2.69269773       0.00000000
