10
Lattice="16.28999089631971 0.0 0.0 0.0 16.28999089631971 0.0 0.0 0.0 34.48637585096406" Properties=species:S:1:pos:R:3:initial_magmoms:R:1 pbc="T T T"
Si       0.78245757       0.80058834      -2.06463150       0.00000000
Si      -1.92757941      -1.20888090      -0.58688947       0.00000000
Si       2.07164817      -0.45563130       1.05445602       0.00000000
Si      -0.70444476       1.32691824       1.93585930       0.00000000
Si       1.59244524       1.23971787       2.63296729       0.00000000
Si       2.26266471       2.51549595      -1.34807319       0.00000000
Si      -2.70487305       0.09213624      -2.47915797       0.00000000
Si      -3.21558084      -1.08740637       1.42121883       0.00000000
Si       1.93086999      -2.41823421       2.30576038       0.00000000
Si      -0.95474061       1.40561523      -3.47398701       0.00000000
