10
Lattice="16.28999089631971 0.0 0.0 0.0 16.28999089631971 0.0 0.0 0.0 34.48637585096406" Properties=species:S:1:pos:R:3:initial_magmoms:R:1 pbc="T T T"
Si      -0.46330389       2.10246885       1.02962581       0.00000000
Si      -1.96413417      -1.16956987      -0.71324762       0.00000000
Si       1.31062824       1.10071530      -1.71387038       0.00000000
Si       1.49169159      -0.90444361       1.73542438       0.00000000
Si       0.81604755       3.21906690      -0.62154830       0.00000000
Si      -1.16093943      -3.30156665      -0.14377378       0.00000000
Si       3.51376929       0.29489787       1.29030847       0.00000000
Si       0.71763966       0.10953396       3.76053447       0.00000000
Si       3.59495865       0.98197749      -0.96534317       0.00000000
Si       0.55014588       2.35853136       3.13157160       0.00000000
