10
Lattice="16.28999089631971 0.0 0.0 0.0 16.28999089631971 0.0 0.0 0.0 34.48637585096406" Properties=species:S:1:pos:R:3:initial_magmoms:R:1 pbc="T T T"
Si       2.30277069      -0.30154419       0.36503849       0.00000000
Si      -0.37985022      -2.25396585      -0.68148565       0.00000000
Si      -0.25130583       2.09381953      -1.15612191       0.00000000
Si      -1.26669411       0.12541671       2.13439748       0.00000000
Si      -3.16312704      -0.14450859      -0.63789485       0.00000000
Si       1.82270439      -0.76053123       2.67445443       0.00000000
Si      -1.02535776       3.10779710       0.86898818       0.00000000
Si      -2.85268851       1.56604634       1.13167106       0.00000000
Si      -2.67403608      -2.46596391      -0.26530384       0.00000000
Si       0.58455036      -3.67272711       0.95489379       0.00000000
