10
Lattice="16.28999089631971 0.0 0.0 0.0 16.28999089631971 0.0 0.0 0.0 34.48637585096406" Properties=species:S:1:pos:R:3:initial_magmoms:R:1 pbc="T T T"
Si       1.35723393      -1.35629154      -1.35683273       0.00000000
Si       1.35711990       1.35661804       1.35769489       0.00000000
Si      -1.35754344       1.35745698      -1.35724657       0.00000000
Si      -1.35796698      -1.35880020       1.35762592       0.00000000
Si       2.71495656      -0.00065552      -2.71204460       0.00000000
Si      -2.71485882       0.00030125      -2.71401032       0.00000000
Si       0.00162900       2.71444004      -2.71452762       0.00000000
Si       0.00234576      -2.71339515      -2.71576913       0.00000000
Si      -2.71495656      -2.71443771       0.00010346       0.00000000
Si       2.71472850       2.71528712       0.00003449       0.00000000
