10
Lattice="16.28999089631971 0.0 0.0 0.0 16.28999089631971 0.0 0.0 0.0 34.48637585096406" Properties=species:S:1:pos:R:3:initial_magmoms:R:1 pbc="T T T"
Si      -1.35659862       1.35612187      -1.35931575       0.00000000
Si       1.35873261      -1.35791172      -1.35852256       0.00000000
Si      -1.36725228      -1.34333217       1.36883400       0.00000000
Si       1.36174626       1.35968775       1.38411147       0.00000000
Si      -2.71011843      -2.71780092      -0.00206918       0.00000000
Si      -2.71371852      -0.00049617      -2.71701064       0.00000000
Si       0.00100998       2.71479095      -2.71697615       0.00000000
Si      -2.71459818       2.71756025       0.00027589       0.00000000
Si       0.00128691      -2.71555290      -2.71680372       0.00000000
Si       2.71629234      -0.00070912      -2.71670026       0.00000000
