10
Lattice="16.28999089631971 0.0 0.0 0.0 16.28999089631971 0.0 0.0 0.0 34.48637585096406" Properties=species:S:1:pos:R:3:initial_magmoms:R:1 pbc="T T T"
Si      -1.60585191      -1.14236883      -1.31918880       0.00000000
Si       1.32159141      -1.36673100       1.45212209       0.00000000
Si      -1.37876931       1.34985456       1.44887347       0.00000000
Si       1.44062244       1.29310020      -1.57645731       0.00000000
Si      -2.68679115       2.67507864       0.00729732       0.00000000
Si       2.71443528       2.65202829      -0.06585522       0.00000000
Si      -3.48384456       0.71834013      -1.34194982       0.00000000
Si       2.75330322      -2.67357344       0.10797001       0.00000000
Si      -2.72168433      -2.70900419       0.03672801       0.00000000
Si       2.67621894      -0.01089801       2.81967664       0.00000000
