10
Lattice="16.28999089631971 0.0 0.0 0.0 16.28999089631971 0.0 0.0 0.0 34.48637585096406" Properties=species:S:1:pos:R:3:initial_magmoms:R:1 pbc="T T T"
Si      -1.35803214       1.35755973      -1.36124699       0.00000000
Si       1.35811359      -1.35931905      -1.36086764       0.00000000
Si       1.35509994       1.37223702       1.37004102       0.00000000
Si      -1.37485971      -1.35527913       1.36904091       0.00000000
Si       2.62629009      -0.05457150       2.78125879       0.00000000
Si      -2.71536381      -2.71120986      -0.00158637       0.00000000
Si      -2.71298547       2.71507059       0.00051730       0.00000000
Si       2.71655298      -2.71212210      -0.00572474       0.00000000
Si       0.00024435      -2.71397916      -2.71883842       0.00000000
Si      -2.71466334       0.00063531      -2.71859701       0.00000000
