10
Lattice="16.28999089631971 0.0 0.0 0.0 16.28999089631971 0.0 0.0 0.0 34.48637585096406" Properties=species:S:1:pos:R:3:initial_magmoms:R:1 pbc="T T T"
Si       2.31363612      -0.59326551       0.11680542       0.00000000
Si      -1.04669766      -1.59526341       1.46394747       0.00000000
Si      -0.58582098      -0.42186213      -2.38928643       0.00000000
Si      -0.42575544       2.60376102       0.15918920       0.00000000
Si      -0.64927053       2.42955576       2.50547109       0.00000000
Si       0.99590544       0.85949298       3.32545411       0.00000000
Si       1.69639173       3.11298642      -0.56395602       0.00000000
Si       2.92136715       0.70933176       1.97031121       0.00000000
Si      -3.22527339      -0.76030317       1.44356601       0.00000000
Si      -0.30691989      -3.57879897       0.48877568       0.00000000
