10
Lattice="16.28999089631971 0.0 0.0 0.0 16.28999089631971 0.0 0.0 0.0 34.48637585096406" Properties=species:S:1:pos:R:3:initial_magmoms:R:1 pbc="T T T"
Si      -0.60421239       2.06886258      -1.04400664       0.00000000
Si       1.98042417       0.31112271       1.32572600       0.00000000
Si       0.58973058      -2.26276245      -0.57781955       0.00000000
Si      -2.21850252      -0.54817479       1.06935414       0.00000000
Si      -2.07778950       2.26913184       0.72869753       0.00000000
Si      -1.06328088      -2.18665557       2.37387101       0.00000000
Si       0.82424142      -0.98912880       3.38884010       0.00000000
Si       1.21872006       3.49068636      -0.45546182       0.00000000
Si      -3.33659925      -1.41372765      -0.87695454       0.00000000
Si       0.87659748      -2.31322887      -2.86306052       0.00000000
