10
Lattice="16.28999089631971 0.0 0.0 0.0 16.28999089631971 0.0 0.0 0.0 34.48637585096406" Properties=species:S:1:pos:R:3:initial_magmoms:R:1 pbc="T T T"
Si      -1.58838903       1.12790331      -1.25161474       0.00000000
Si       1.24657596      -1.67158206      -1.07525131       0.00000000
Si      -0.45269910      -0.14775030       2.33935013       0.00000000
Si       1.19487150       2.08481049       0.44908184       0.00000000
Si      -0.57795291       2.16300249       2.07094251       0.00000000
Si       3.19236759       0.91979856       0.60985741       0.00000000
Si       1.86064380      -2.73844674       1.13587840       0.00000000
Si      -0.19738593       2.42000982      -2.69024920       0.00000000
Si      -2.61303003       2.48758074       0.47539496       0.00000000
Si       2.78676288      -0.83494395       2.20775004       0.00000000
