10
Lattice="16.28999089631971 0.0 0.0 0.0 16.28999089631971 0.0 0.0 0.0 34.48637585096406" Properties=species:S:1:pos:R:3:initial_magmoms:R:1 pbc="T T T"
Si      -2.12214717      -0.50922540       0.72314522       0.00000000
Si      -0.12525381       2.31075279      -0.26840761       0.00000000
Si       1.71543474      -0.33488982       1.59730636       0.00000000
Si       0.45269910       0.14775030      -2.33935013       0.00000000
Si       3.23946198      -0.68719365      -0.13160008       0.00000000
Si       1.64757060       2.23256079      -1.89026829       0.00000000
Si      -3.19728717       0.57238173      -1.08349356       0.00000000
Si      -1.69639173      -3.11298642       0.56395602       0.00000000
Si       2.31334290      -2.59069644      -1.20347173       0.00000000
Si       1.22497542      -2.40365466       2.53426723       0.00000000
