10
Lattice="16.28999089631971 0.0 0.0 0.0 16.28999089631971 0.0 0.0 0.0 34.48637585096406" Properties=species:S:1:pos:R:3:initial_magmoms:R:1 pbc="T T T"
Si       1.85297121      -0.91658943       0.99658785       0.00000000
Si      -0.49301685      -1.17077859      -1.93489368       0.00000000
Si       0.63096057       2.07917415      -0.87416114       0.00000000
Si      -2.12866317       0.22270059       0.99996751       0.00000000
Si      -1.59156558       2.46207060      -1.56385456       0.00000000
Si      -2.13819282       0.39928419      -2.75487670       0.00000000
Si      -1.44036180      -0.20061135       3.21020058       0.00000000
Si      -2.64026691       2.52245763       0.59295908       0.00000000
Si       1.43244486      -1.32093981      -3.29003658       0.00000000
Si       1.60122555       3.38491539       0.81867253       0.00000000
