10
Lattice="16.28999089631971 0.0 0.0 0.0 16.28999089631971 0.0 0.0 0.0 34.48637585096406" Properties=species:S:1:pos:R:3:initial_magmoms:R:1 pbc="T T T"
Si      -1.47357711       0.20026926       1.77270417       0.00000000
Si      -0.68830137       0.42331194      -2.21023306       0.00000000
Si       1.82293245       1.42182378       0.58854482       0.00000000
Si       0.60421239      -2.06886258       1.04400664       0.00000000
Si       1.44036180       0.20061135      -3.21020058       0.00000000
Si       1.48994856       1.75009986       2.91596265       0.00000000
Si      -1.61429013      -2.61703737       2.11336078       0.00000000
Si       3.78434619       0.21895389      -0.09225111       0.00000000
Si      -2.75735943       2.22050619       1.42049462       0.00000000
Si      -0.35797275       0.59254875       3.81395390       0.00000000
