10
Lattice="16.28999089631971 0.0 0.0 0.0 16.28999089631971 0.0 0.0 0.0 34.48637585096406" Properties=species:S:1:pos:R:3:initial_magmoms:R:1 pbc="T T T"
Si      -1.63940931       1.49975514      -0.64768899       0.00000000
Si      -0.54472131      -2.00808459      -1.19391900       0.00000000
Si      -0.38118600      -0.25956486       2.36883599       0.00000000
Si       1.96524189       1.52358741       0.44746098       0.00000000
Si       0.41177862       2.08564128       2.30082882       0.00000000
Si      -2.67186951      -1.34581464       1.71669826       0.00000000
Si      -1.30642542       1.17147906      -2.97510682       0.00000000
Si      -3.48733062       0.34220403       0.25030226       0.00000000
Si       1.42185636      -1.97982144      -2.55423485       0.00000000
Si      -0.96847308       3.50746506       0.57237070       0.00000000
