10
Lattice="16.28999089631971 0.0 0.0 0.0 16.28999089631971 0.0 0.0 0.0 34.48637585096406" Properties=species:S:1:pos:R:3:initial_magmoms:R:1 pbc="T T T"
Si      -1.34899119       1.34861502       1.35648787       0.00000000
Si       1.36650294       1.33879771      -1.35414969       0.00000000
Si       1.36513458      -1.36612827       1.35176323       0.00000000
Si      -1.33079526      -1.36135530      -1.39564027       0.00000000
Si       0.62376039      -2.17880379      -2.75821498       0.00000000
Si       2.42212752      -0.30830454      -2.63165681       0.00000000
Si      -2.70787041       2.70510341      -0.00448323       0.00000000
Si      -2.70671382      -0.00702099       2.71169973       0.00000000
Si       0.00747711       2.70651901       2.71207909       0.00000000
Si       2.72598489       2.70797045      -0.00200021       0.00000000
