10
Lattice="16.28999089631971 0.0 0.0 0.0 16.28999089631971 0.0 0.0 0.0 34.48637585096406" Properties=species:S:1:pos:R:3:initial_magmoms:R:1 pbc="T T T"
Si      -1.35646830      -1.35617508       1.35693619       0.00000000
Si       1.35764118      -1.35808101      -1.35717759       0.00000000
Si       1.35744570       1.35764118       1.35828116       0.00000000
Si      -1.35777150       1.35876519      -1.35703965       0.00000000
Si      -2.71140534      -0.00224802       2.71473454       0.00000000
Si      -0.00004887       2.71440120      -2.71225152       0.00000000
Si      -0.00017919      -2.71309950      -2.71518286       0.00000000
Si      -2.71265967       0.00166158      -2.71597605       0.00000000
Si      -2.71516833      -2.71453302       0.00010346       0.00000000
Si       2.71500543       2.71484378       0.00010346       0.00000000
