10
Lattice="16.28999089631971 0.0 0.0 0.0 16.28999089631971 0.0 0.0 0.0 34.48637585096406" Properties=species:S:1:pos:R:3:initial_magmoms:R:1 pbc="T T T"
Si       1.35529542      -1.35693093       1.35855705       0.00000000
Si      -1.36052451       1.35673546       1.35790181       0.00000000
Si       1.33739271       1.35482953      -1.38328724       0.00000000
Si      -1.33682256      -1.36895240      -1.37712797       0.00000000
Si      -2.73671674      -0.01515296      -2.66803651       0.00000000
Si       2.71050939      -2.71243228      -0.00324172       0.00000000
Si       2.71138905       2.71447438      -0.00475912       0.00000000
Si       2.71261080       0.00022480       2.71532081       0.00000000
Si      -0.00245979      -2.71438708       2.71497594       0.00000000
Si      -0.00226431       2.71532146       2.71514837       0.00000000
