10
Lattice="16.28999089631971 0.0 0.0 0.0 16.28999089631971 0.0 0.0 0.0 34.48637585096406" Properties=species:S:1:pos:R:3:initial_magmoms:R:1 pbc="T T T"
Si      -1.94818626       1.27488798       0.67845085       0.00000000
Si      -0.67093623      -2.00770992      -1.22005969       0.00000000
Si       1.63926270       0.93325410      -1.66579634       0.00000000
Si       1.38025170      -1.42182378       1.72845812       0.00000000
Si       2.93371497      -1.98387765      -0.12490972       0.00000000
Si       0.96847308      -3.50746506      -0.57237070       0.00000000
Si       2.85042420       2.40547914      -0.24940561       0.00000000
Si       0.51282549       1.85181462      -3.49367874       0.00000000
Si       3.22498017      -0.80039286      -2.22737280       0.00000000
Si      -3.68009019       1.37489229      -0.99596709       0.00000000
