10
Lattice="16.28999089631971 0.0 0.0 0.0 16.28999089631971 0.0 0.0 0.0 34.48637585096406" Properties=species:S:1:pos:R:3:initial_magmoms:R:1 pbc="T T T"
Si      -0.56962872       1.31186628      -1.86605884       0.00000000
Si       0.35238528       1.41330411       1.84750516       0.00000000
Si       1.99458018      -1.07880525      -0.67010514       0.00000000
Si      -1.88152758      -1.42551835       0.33034518       0.00000000
Si       1.06644114      -2.66901550      -2.22685551       0.00000000
Si      -1.43961246       2.90805822       1.70507635       0.00000000
Si      -3.38138046      -0.11577303       1.56771704       0.00000000
Si       2.28790999       2.72811888       1.33176112       0.00000000
Si      -1.16056476      -3.37299830       1.40100980       0.00000000
Si      -0.83553039      -0.07597656      -3.75391308       0.00000000
