10
Lattice="16.28999089631971 0.0 0.0 0.0 16.28999089631971 0.0 0.0 0.0 34.48637585096406" Properties=species:S:1:pos:R:3:initial_magmoms:R:1 pbc="T T T"
Si       1.22673474      -1.96453816      -0.01886406       0.00000000
Si       0.87760746       1.61098326       1.45173929       0.00000000
Si      -0.11284083       0.94164345      -2.14957149       0.00000000
Si      -1.97038953      -0.70760502       1.21512813       0.00000000
Si       0.39889323      -2.80717588       2.02414448       0.00000000
Si       0.05523939       1.01906982       3.51178410       0.00000000
Si      -0.50731947       3.46330287       1.17746899       0.00000000
Si      -1.90483857       2.43639756      -2.29200031       0.00000000
Si      -3.83478003      -0.35492652      -0.07186965       0.00000000
Si      -1.84564071      -3.11880521       1.31068993       0.00000000
