10
Lattice="16.28999089631971 0.0 0.0 0.0 16.28999089631971 0.0 0.0 0.0 34.48637585096406" Properties=species:S:1:pos:R:3:initial_magmoms:R:1 pbc="T T T"
Si      -1.66983903       0.99942408       1.37990413       0.00000000
Si       2.07225483       1.07445582      -0.74697532       0.00000000
Si       0.76411503      -1.67002311       1.63214456       0.00000000
Si      -1.60164909      -0.01532889      -2.00424583       0.00000000
Si      -1.38639303      -2.29539851      -1.49864079       0.00000000
Si       1.80220084      -0.59545814      -2.42639379       0.00000000
Si       0.92380590      -2.74179338      -1.76070290       0.00000000
Si      -0.18709065       2.17354212       2.72588541       0.00000000
Si       2.19771552      -2.79196658       0.16998344       0.00000000
Si      -2.70495450       2.43322101      -0.22247173       0.00000000
