10
Lattice="16.28999089631971 0.0 0.0 0.0 16.28999089631971 0.0 0.0 0.0 34.48637585096406" Properties=species:S:1:pos:R:3:initial_magmoms:R:1 pbc="T T T"
Si       1.35611548      -1.35845568      -1.36297131       0.00000000
Si      -1.36124127       1.35741312      -1.36266093       0.00000000
Si       1.36989845       1.35501849       1.35986753       0.00000000
Si      -1.37815029      -1.37386602       1.36666135       0.00000000
Si      -0.04598667       2.57813685       2.75187639       0.00000000
Si       2.71294379      -2.71217097       0.00034486       0.00000000
Si       2.71323701       2.71489140      -0.00493155       0.00000000
Si      -2.71528236      -2.71313208      -0.00686279       0.00000000
Si      -2.71440270       2.71533123      -0.00772495       0.00000000
Si       2.71367684      -0.00043983      -2.71983852       0.00000000
