10
Lattice="16.28999089631971 0.0 0.0 0.0 16.28999089631971 0.0 0.0 0.0 34.48637585096406" Properties=species:S:1:pos:R:3:initial_magmoms:R:1 pbc="T T T"
Si      -1.27119015       1.42680852      -1.41121777       0.00000000
Si       1.42739496      -1.31828454      -1.41345939       0.00000000
Si       1.84101435       0.77893893       1.34455557       0.00000000
Si      -1.99278828      -0.72694125       1.53943819       0.00000000
Si      -2.64593583      -2.56285683       0.03990076       0.00000000
Si      -2.65204458       2.73491181       0.07180067       0.00000000
Si       2.75955858       2.63371833      -0.02824436       0.00000000
Si       2.60206686      -2.80363932       0.04041806       0.00000000
Si      -2.62629009       0.05457150      -2.78125879       0.00000000
Si       0.09026289      -2.65755060      -2.78698354       0.00000000
