10
Lattice="16.28999089631971 0.0 0.0 0.0 16.28999089631971 0.0 0.0 0.0 34.48637585096406" Properties=species:S:1:pos:R:3:initial_magmoms:R:1 pbc="T T T"
Si      -1.79199774       1.49475411      -0.14242881       0.00000000
Si       0.11284083      -0.94164345       2.14957149       0.00000000
Si      -0.35238528      -1.41330411      -1.84750516       0.00000000
Si       1.93552471       1.31481477      -0.51574404       0.00000000
Si       1.03953006       2.78576919      -2.19312781       0.00000000
Si      -0.96845679       3.39490116      -1.15515629       0.00000000
Si       0.99044829       0.66933981       3.60131078       0.00000000
Si      -0.92201400      -0.10143783      -3.71356400       0.00000000
Si      -2.36662749       2.25634419       1.99338261       0.00000000
Si       1.33957557      -2.90618161       2.13070744       0.00000000
