10
Lattice="16.28999089631971 0.0 0.0 0.0 16.28999089631971 0.0 0.0 0.0 34.48637585096406" Properties=species:S:1:pos:R:3:initial_magmoms:R:1 pbc="T T T"
Si       0.82354095       1.90014705      -1.01272748       0.00000000
Si       1.79199774      -1.49475411       0.14242881       0.00000000
Si      -0.57462975       0.76159008       2.13581142       0.00000000
Si      -1.87090650      -0.87535944      -1.14029265       0.00000000
Si      -1.08172116       2.71073745      -2.07314964       0.00000000
Si      -1.94176800      -3.02383125      -0.13735931       0.00000000
Si      -2.47371795      -0.55102554       2.60803363       0.00000000
Si       1.24395327       3.33371592       0.80642986       0.00000000
Si       1.43961246      -2.90805822      -1.70507635       0.00000000
Si       2.83152780       1.29101508      -2.05069900       0.00000000
