10
Lattice="16.28999089631971 0.0 0.0 0.0 16.28999089631971 0.0 0.0 0.0 34.48637585096406" Properties=species:S:1:pos:R:3:initial_magmoms:R:1 pbc="T T T"
Si      -0.82236807      -0.59191344       2.06004481       0.00000000
Si      -1.38492693       1.85231961      -0.27427030       0.00000000
Si       2.16214794       0.76108509      -0.42366536       0.00000000
Si      -0.87760746      -1.61098326      -1.45173929       0.00000000
Si       1.73689586       2.01836358      -2.35342058       0.00000000
Si      -2.84799699      -2.31858828      -0.23661116       0.00000000
Si       0.07920198       3.44774592      -1.40580341       0.00000000
Si      -3.27512079      -0.81725301       1.63865555       0.00000000
Si      -0.35161965      -2.88707670       2.38514806       0.00000000
Si      -0.99044829      -0.66933981      -3.60131078       0.00000000
