10
Lattice="16.28999089631971 0.0 0.0 0.0 16.28999089631971 0.0 0.0 0.0 34.48637585096406" Properties=species:S:1:pos:R:3:initial_magmoms:R:1 pbc="T T T"
Si       0.00068418       1.32968754       1.97741541       0.00000000
Si      -1.12759380      -2.14892793       0.11642607       0.00000000
Si      -1.74053600       1.30463352      -1.12580837       0.00000000
Si       2.41135983       0.39856743      -0.23461095       0.00000000
Si       0.26336043       2.07249525      -2.22699345       0.00000000
Si       0.95925294      -0.39131838       3.26441319       0.00000000
Si       1.50366474      -0.06256989      -3.31328041       0.00000000
Si      -3.37132043      -1.25547030       0.69179709       0.00000000
Si       3.07768599       0.02234988       2.15450305       0.00000000
Si      -2.11567352       2.18501028       2.49229729       0.00000000
