10
Lattice="16.28999089631971 0.0 0.0 0.0 16.28999089631971 0.0 0.0 0.0 34.48637585096406" Properties=species:S:1:pos:R:3:initial_magmoms:R:1 pbc="T T T"
Si      -1.35350352       1.35812988       1.35962613       0.00000000
Si       1.36412460      -1.35840681       1.35948818       0.00000000
Si      -1.32892191      -1.39185018      -1.36217122       0.00000000
Si       1.37448504       1.36725228      -1.38350796       0.00000000
Si      -2.59859709       0.07356564      -2.62246619       0.00000000
Si      -2.71052568       2.70746316       0.00289686       0.00000000
Si      -2.71049310      -0.00117288       2.71749345       0.00000000
Si      -2.71200807      -2.71774215       0.00448323       0.00000000
Si       0.00431685       2.71314837       2.71763139       0.00000000
Si       0.00382815      -2.71645524       2.71735550       0.00000000
