10
Lattice="16.28999089631971 0.0 0.0 0.0 16.28999089631971 0.0 0.0 0.0 34.48637585096406" Properties=species:S:1:pos:R:3:initial_magmoms:R:1 pbc="T T T"
Si      -1.34974053      -1.33193556      -1.36438525       0.00000000
Si      -1.40561523       1.22823342       1.40794157       0.00000000
Si       1.36645407       1.38176667      -1.36041931       0.00000000
Si       1.31867550      -1.46912994       1.39521609       0.00000000
Si       0.42911118       2.03058108       2.64738261       0.00000000
Si       2.24555925       0.32770593       2.62703563       0.00000000
Si      -2.71207323      -2.67603975       0.01224267       0.00000000
Si       0.00342090      -2.68985367      -2.71932123       0.00000000
Si       2.73456062      -2.69224830       0.00320723       0.00000000
Si      -2.70875007       0.02394630      -2.71997647       0.00000000
