10
Lattice="16.28999089631971 0.0 0.0 0.0 16.28999089631971 0.0 0.0 0.0 34.48637585096406" Properties=species:S:1:pos:R:3:initial_magmoms:R:1 pbc="T T T"
Si       1.35142233       1.36252818       1.35359101       0.00000000
Si       1.35396683      -1.35822762      -1.35897089       0.00000000
Si      -1.36189287       1.35746199      -1.35800527       0.00000000
Si      -1.36645407      -1.38176667       1.36041931       0.00000000
Si      -0.04784373       2.55700872       2.81067569       0.00000000
Si       2.71066319       2.71329498       0.00137946       0.00000000
Si       2.71144511      -2.71414206      -0.00117254       0.00000000
Si       2.71149398       0.00068418      -2.71597605       0.00000000
Si      -2.71531494       2.71435383      -0.00006897       0.00000000
Si      -2.71619460      -2.71370223      -0.00396594       0.00000000
