10
Lattice="16.28999089631971 0.0 0.0 0.0 16.28999089631971 0.0 0.0 0.0 34.48637585096406" Properties=species:S:1:pos:R:3:initial_magmoms:R:1 pbc="T T T"
Si      -1.83472641      -0.80234766      -1.23944104       0.00000000
Si      -1.21515255       0.50727060       2.00565977       0.00000000
Si       0.88949916       1.90819431      -1.19712623       0.00000000
Si       1.81644807      -1.70287515      -0.02034697       0.00000000
Si      -0.42911118      -2.03058108      -2.64738261       0.00000000
Si       0.26365365       2.10414672       2.77325795       0.00000000
Si       2.28876522       0.71371377      -2.65421091       0.00000000
Si      -3.16094418      -2.08411002       0.32055104       0.00000000
Si       0.88956432      -3.49971102      -1.25216652       0.00000000
Si       3.61488851      -0.62903835      -1.25451160       0.00000000
