10
Lattice="16.28999089631971 0.0 0.0 0.0 16.28999089631971 0.0 0.0 0.0 34.48637585096406" Properties=species:S:1:pos:R:3:initial_magmoms:R:1 pbc="T T T"
Si      -1.35436029       1.35745319      -1.35621197       0.00000000
Si       1.35801008       1.35636501       1.35717759       0.00000000
Si      -1.35652686      -1.35858081       1.35707413       0.00000000
Si       1.35846132      -1.35916725      -1.36166083       0.00000000
Si       0.00349266       2.70143194      -2.70091929       0.00000000
Si      -2.71384224      -0.01171955      -2.70836145       0.00000000
Si       2.71501921       2.71272091      -0.00034486       0.00000000
Si       0.00083504       2.71347025       2.71445865       0.00000000
Si      -2.71473819       2.71374718       0.00062076       0.00000000
Si      -2.71428207      -0.00145966       2.71463108       0.00000000
