10
Lattice="16.28999089631971 0.0 0.0 0.0 16.28999089631971 0.0 0.0 0.0 34.48637585096406" Properties=species:S:1:pos:R:3:initial_magmoms:R:1 pbc="T T T"
Si      -1.96149519       1.26993582      -0.52564163       0.00000000
Si       1.87093323       0.19482840      -1.48763963       0.00000000
Si       0.74719365       0.16312806       2.35502941       0.00000000
Si      -0.54709965      -2.09142423      -2.23564954       0.00000000
Si       3.12457580      -1.08414837       0.14191152       0.00000000
Si      -1.03314438      -0.78117066       3.56055963       0.00000000
Si      -2.44488465      -2.06666343       2.03645612       0.00000000
Si       1.32181362      -1.16295939      -3.37104512       0.00000000
Si       2.61691424      -1.30932504       2.48715817       0.00000000
Si      -1.67022999       2.45342061      -2.62810471       0.00000000
