10
Lattice="16.28999089631971 0.0 0.0 0.0 16.28999089631971 0.0 0.0 0.0 34.48637585096406" Properties=species:S:1:pos:R:3:initial_magmoms:R:1 pbc="T T T"
Si      -1.35342207       1.35689184       1.35793629       0.00000000
Si      -1.35620766      -1.35703845      -1.35786732       0.00000000
Si       1.35915431       1.35762489      -1.35762592       0.00000000
Si       1.36189287      -1.35746199       1.35800527       0.00000000
Si       0.01501938       2.69501760       2.72266641       0.00000000
Si       2.71331520       0.00506619       2.71159628       0.00000000
Si      -2.71331127      -2.71528236      -0.00155189       0.00000000
Si      -2.71357191       0.00008145      -2.71521735       0.00000000
Si       0.00216657      -2.71432125      -2.71514837       0.00000000
Si      -2.71376739       2.71580364       0.00024140       0.00000000
