10
Lattice="16.28999089631971 0.0 0.0 0.0 16.28999089631971 0.0 0.0 0.0 34.48637585096406" Properties=species:S:1:pos:R:3:initial_magmoms:R:1 pbc="T T T"
Si       0.70752357      -0.63433260      -2.15574456       0.00000000
Si       1.88214401      -1.16805816       0.83005304       0.00000000
Si       0.39640086       2.29976748      -0.51836501       0.00000000
Si      -1.92331143      -0.13357800       1.43949662       0.00000000
Si       2.20888395      -2.34250200      -1.21626618       0.00000000
Si      -1.85484456       2.63409856      -1.32176007       0.00000000
Si       3.19670792       0.76462002       1.33834802       0.00000000
Si      -0.77128263      -2.23120872      -2.92334274       0.00000000
Si      -2.14387803      -2.29602663       2.25927272       0.00000000
Si      -1.83060504       1.59578469       3.10950030       0.00000000
