10
Lattice="16.28999089631971 0.0 0.0 0.0 16.28999089631971 0.0 0.0 0.0 34.48637585096406" Properties=species:S:1:pos:R:3:initial_magmoms:R:1 pbc="T T T"
Si      -0.10943622       1.63499472       1.64375954       0.00000000
Si      -2.04507918      -1.12448241      -0.07214554       0.00000000
Si       0.06555701       1.19503440      -2.03883568       0.00000000
Si       2.02351841      -1.18969128       0.34165672       0.00000000
Si       2.84310089      -0.65462994      -1.78049809       0.00000000
Si       2.35400993       1.66682538      -2.15308911       0.00000000
Si      -1.86636159      -2.34057978      -2.17502245       0.00000000
Si      -3.63079665       0.60916455       0.48943092       0.00000000
Si      -2.41963515       2.08138959       1.90582165       0.00000000
Si       1.49608404      -3.38307462       1.06831955       0.00000000
