10
Lattice="16.28999089631971 0.0 0.0 0.0 16.28999089631971 0.0 0.0 0.0 34.48637585096406" Properties=species:S:1:pos:R:3:initial_magmoms:R:1 pbc="T T T"
Si       2.04507918       1.12448241       0.07214554       0.00000000
Si      -1.58571747       1.73364696       0.56157646       0.00000000
Si      -0.29126520      -1.18348479       2.10246308       0.00000000
Si       0.17871759      -1.21609737      -2.10287692       0.00000000
Si       2.11063619       2.31951681      -1.96669014       0.00000000
Si      -1.60151877      -2.73846303      -2.00090065       0.00000000
Si       1.93564296       2.75947713       1.71590508       0.00000000
Si      -0.37455597       3.20587200       1.97796719       0.00000000
Si      -2.25650709      -2.70707220       1.65500210       0.00000000
Si       1.67022999      -2.45342061       2.62810471       0.00000000
