10
Lattice="16.28999089631971 0.0 0.0 0.0 16.28999089631971 0.0 0.0 0.0 34.48637585096406" Properties=species:S:1:pos:R:3:initial_magmoms:R:1 pbc="T T T"
Si       0.42525208      -1.25727849       1.92975521       0.00000000
Si      -0.79181943      -1.37288862      -1.76363425       0.00000000
Si       2.27030472       0.37649448      -0.61323708       0.00000000
Si      -1.65769388       1.42938234       0.94761717       0.00000000
Si      -1.73689586      -2.01836358       2.35342058       0.00000000
Si       1.29569031      -2.41761519      -2.32779718       0.00000000
Si      -3.12182279      -0.16604397       2.07915028       0.00000000
Si       2.42385426      -0.36551502      -2.88030372       0.00000000
Si       1.35360126       0.26327898       3.53264837       0.00000000
Si      -1.68781409       0.09806580      -3.44101802       0.00000000
