10
Lattice="16.28999089631971 0.0 0.0 0.0 16.28999089631971 0.0 0.0 0.0 34.48637585096406" Properties=species:S:1:pos:R:3:initial_magmoms:R:1 pbc="T T T"
Si      -2.16214794      -0.76108509       0.42366536       0.00000000
Si       1.84265801      -1.40063049      -0.28930637       0.00000000
Si      -0.42525208       1.25727849      -1.92975521       0.00000000
Si       0.92834918       1.52055747       1.60289316       0.00000000
Si      -2.08294596       2.68666083      -0.98213805       0.00000000
Si       1.84505264       1.63377297      -2.54299229       0.00000000
Si       2.85610778      -1.14456798       1.81263941       0.00000000
Si       3.12200945      -0.28403244      -1.94048048       0.00000000
Si      -3.54707487       1.09123452       0.14939506       0.00000000
Si       1.73775041       0.23532534       3.38283947       0.00000000
