10
Lattice="16.28999089631971 0.0 0.0 0.0 16.28999089631971 0.0 0.0 0.0 34.48637585096406" Properties=species:S:1:pos:R:3:initial_magmoms:R:1 pbc="T T T"
Si       0.80940123      -1.28523213       1.77994631       0.00000000
Si      -1.44956239       1.71587457       0.66982925       0.00000000
Si       2.12348295       0.91043181      -0.52577958       0.00000000
Si      -0.92834918      -1.52055747      -1.60289316       0.00000000
Si       1.92775860      -2.66512545       0.20974626       0.00000000
Si       0.91430883      -2.92118796      -1.89219953       0.00000000
Si      -1.35360126      -0.26327898      -3.53264837       0.00000000
Si       2.57162085       2.53829151       1.18081417       0.00000000
Si      -3.31847567       0.78740973       1.80522484       0.00000000
Si       2.04408549       1.72235799      -2.79846751       0.00000000
