10
Lattice="16.28999089631971 0.0 0.0 0.0 16.28999089631971 0.0 0.0 0.0 34.48637585096406" Properties=species:S:1:pos:R:3:initial_magmoms:R:1 pbc="T T T"
Si      -2.11458602       0.89557533      -0.40569795       0.00000000
Si       1.76170811       1.03457790      -1.18833220       0.00000000
Si      -0.40520723      -2.06219997       1.17412381       0.00000000
Si      -1.07629007       0.15915330       3.38936416       0.00000000
Si      -2.96055830      -0.55374597      -2.08746150       0.00000000
Si      -3.17842076       0.93612114       1.78305009       0.00000000
Si      -0.67526122      -3.73211393      -0.50529466       0.00000000
Si       0.95230688       2.31981003      -2.96827851       0.00000000
Si       0.63152420      -1.79813907       3.39173048       0.00000000
Si       2.88006548      -0.34531542      -2.75853226       0.00000000
