10
Lattice="16.28999089631971 0.0 0.0 0.0 16.28999089631971 0.0 0.0 0.0 34.48637585096406" Properties=species:S:1:pos:R:3:initial_magmoms:R:1 pbc="T T T"
Si      -1.04320413       1.51931943       1.48025954       0.00000000
Si       2.00389643       0.76786173      -1.10118508       0.00000000
Si       1.74053600      -1.30463352       1.12580837       0.00000000
Si      -2.13821793      -1.31843115      -0.18039833       0.00000000
Si       0.12656353       1.44840906      -2.48271007       0.00000000
Si      -1.63078443      -2.56010382       1.81760545       0.00000000
Si       2.09906261       2.85843888       0.27137344       0.00000000
Si       1.74122018       0.02505402       3.10322378       0.00000000
Si      -1.71886446      -2.20320621      -2.34172969       0.00000000
Si       0.61294220      -3.45356145       1.24223444       0.00000000
