10
Lattice="16.28999089631971 0.0 0.0 0.0 16.28999089631971 0.0 0.0 0.0 34.48637585096406" Properties=species:S:1:pos:R:3:initial_magmoms:R:1 pbc="T T T"
Si       1.35732766       1.35809730       1.35703965       0.00000000
Si       1.35715499      -1.35786924      -1.35752246       0.00000000
Si      -1.35760676       1.35826020      -1.35786732       0.00000000
Si      -1.35915431      -1.35762489       1.35762592       0.00000000
Si      -0.00144853      -2.71301805      -2.71263087       0.00000000
Si      -2.71257638      -0.00073305       2.71556221       0.00000000
Si       2.71423253      -2.71440270      -0.00034486       0.00000000
Si      -2.71536197      -2.71466334      -0.00024140       0.00000000
Si       2.71340174      -0.00179190       2.71701064       0.00000000
Si       2.71503074       2.71550856       0.00006897       0.00000000
