10
Lattice="16.28999089631971 0.0 0.0 0.0 16.28999089631971 0.0 0.0 0.0 34.48637585096406" Properties=species:S:1:pos:R:3:initial_magmoms:R:1 pbc="T T T"
Si       1.35770308       1.35741126      -1.35697068       0.00000000
Si      -1.35732766      -1.35809730      -1.35703965       0.00000000
Si      -1.35458910       1.35742297       1.36148839       0.00000000
Si       1.35607408      -1.35988920       1.35997099       0.00000000
Si      -0.00316678      -2.71065600       2.71218254       0.00000000
Si      -2.70146259      -0.02070459       2.72325268       0.00000000
Si       2.70286612       0.02946861       2.72442521       0.00000000
Si       2.71461121      -2.71511946      -0.00031038       0.00000000
Si      -2.71493442       0.00016290      -2.71490697       0.00000000
Si      -0.00039748       2.71510873      -2.71480351       0.00000000
