10
Lattice="16.28999089631971 0.0 0.0 0.0 16.28999089631971 0.0 0.0 0.0 34.48637585096406" Properties=species:S:1:pos:R:3:initial_magmoms:R:1 pbc="T T T"
Si       1.28124108      -1.10560230      -1.67152109       0.00000000
Si      -0.35893386      -2.03649435       1.22481881       0.00000000
Si       0.84711258       1.58579892       1.70176565       0.00000000
Si      -1.63387723       1.32352992      -1.38159396       0.00000000
Si      -2.38286699      -1.34767170       2.20381859       0.00000000
Si       1.40212917      -1.90910655       2.73732313       0.00000000
Si      -0.53299251      -2.37268737      -2.76342933       0.00000000
Si       2.41680069       0.54073026      -2.90144388       0.00000000
Si       1.62440622       0.28478178       3.59403415       0.00000000
Si       2.59724502       2.89927791       0.70693661       0.00000000
