10
Lattice="16.28999089631971 0.0 0.0 0.0 16.28999089631971 0.0 0.0 0.0 34.48637585096406" Properties=species:S:1:pos:R:3:initial_magmoms:R:1 pbc="T T T"
Si      -1.88214401       1.16805816      -0.83005304       0.00000000
Si       0.32673993      -1.17444384      -2.04631923       0.00000000
Si      -0.04344380      -1.72271637       1.64924287       0.00000000
Si       1.31456390       1.93267818       0.50829498       0.00000000
Si      -1.17462044       0.53372556      -2.98579760       0.00000000
Si       3.04601171       0.57948417       1.35200463       0.00000000
Si       2.35127579      -1.63180188       1.96769025       0.00000000
Si      -0.79159367      -3.20238594      -1.81643292       0.00000000
Si       0.71823262       0.30892356       3.74418792       0.00000000
Si      -0.12352707      -3.84132861       0.32141320       0.00000000
