10
Lattice="16.28999089631971 0.0 0.0 0.0 16.28999089631971 0.0 0.0 0.0 34.48637585096406" Properties=species:S:1:pos:R:3:initial_magmoms:R:1 pbc="T T T"
Si      -0.80319474       2.13199677      -0.56947384       0.00000000
Si       1.98151560      -0.53537085      -1.23744083       0.00000000
Si      -0.25919019       0.15879492       2.39742522       0.00000000
Si      -1.37958707      -1.86698061      -0.69669415       0.00000000
Si      -3.24663677      -0.96000228       0.31934402       0.00000000
Si      -1.86389366       1.38379707      -2.57740971       0.00000000
Si       1.16093943       3.30156665       0.14377378       0.00000000
Si       0.22990077      -2.16266040       2.77001623       0.00000000
Si      -2.54764311      -0.31299606       2.51167864       0.00000000
Si       0.94819203      -1.59642000      -3.08887744       0.00000000
