10
Lattice="16.28999089631971 0.0 0.0 0.0 16.28999089631971 0.0 0.0 0.0 34.48637585096406" Properties=species:S:1:pos:R:3:initial_magmoms:R:1 pbc="T T T"
Si      -0.81958248      -0.53506134       2.12215481       0.00000000
Si       2.29418586       0.21199806      -0.41618182       0.00000000
Si      -1.03721688      -1.22754924      -1.74304587       0.00000000
Si      -0.48909096       2.32145532      -0.37259101       0.00000000
Si      -2.77754388       1.84966434      -0.25833759       0.00000000
Si      -2.84310089       0.65462994       1.78049809       0.00000000
Si      -0.22990077       2.16266040      -2.77001623       0.00000000
Si       2.67403608       2.46596391       0.26530384       0.00000000
Si       0.81516789      -1.93044645      -3.02066335       0.00000000
Si       3.25858644      -1.20676320       1.22019763       0.00000000
