10
Lattice="10.86 0.0 0.0 0.0 10.86 0.0 0.0 0.0 10.86" Properties=species:S:1:pos:R:3:initial_magmoms:R:1 pbc="T T T"
Si      -1.53177042       0.83283168       1.43612640       0.00000000
Si      -1.26903444      -1.61203668      -1.36279968       0.00000000
Si       1.29924696      -1.64321574       1.34829072       0.00000000
Si      -0.23280582       2.36210430       2.66563044       0.00000000
Si       2.48219418      -0.35289570       2.66563044       0.00000000
Si      -2.94780582       2.36210430      -0.04936956       0.00000000
Si      -0.31201866       2.49252204      -2.86043712       0.00000000
Si       2.48219418      -3.06789570      -0.04936956       0.00000000
Si       1.21045560       3.50742162       1.41857664       0.00000000
Si      -2.94780582      -0.35289570       2.66563044       0.00000000
