10
Lattice="10.86 0.0 0.0 0.0 10.86 0.0 0.0 0.0 10.86" Properties=species:S:1:pos:R:3:initial_magmoms:R:1 pbc="T T T"
Si      -1.41603540      -1.18572738       1.22950404       0.00000000
Si       1.53177042      -0.83283168      -1.43612640       0.00000000
Si       1.29896460       1.52927262       1.22950404       0.00000000
Si      -1.41603540       1.52927262      -1.48549596       0.00000000
Si      -0.05853540      -2.54322738       2.58700404       0.00000000
Si       2.65646460       0.17177262       2.58700404       0.00000000
Si       0.26273598      -2.44486836      -2.79892608       0.00000000
Si       2.83101738      -2.47604742      -0.08783568       0.00000000
Si      -2.77353540      -2.54322738      -0.12799596       0.00000000
Si      -2.77353540       0.17177262       2.58700404       0.00000000
