10
Lattice="10.86 0.0 0.0 0.0 10.86 0.0 0.0 0.0 10.86" Properties=species:S:1:pos:R:3:initial_magmoms:R:1 pbc="T T T"
Si       1.46068086       1.12431408      -1.24431708       0.00000000
Si      -1.35278676       1.01958024       1.53343200       0.00000000
Si      -1.26164964      -1.68411450      -1.19746704       0.00000000
Si       0.11480106       2.43730980      -2.41133268       0.00000000
Si      -2.60019894      -0.27769020      -2.41133268       0.00000000
Si      -2.60019894       2.43730980       0.30366732       0.00000000
Si       2.82980106      -0.27769020      -2.41133268       0.00000000
Si       2.82980106       2.43730980       0.30366732       0.00000000
Si       0.11480106      -2.99269020      -2.41133268       0.00000000
Si       0.11480106       2.43730980       3.01866732       0.00000000
