10
Lattice="16.28999089631971 0.0 0.0 0.0 16.28999089631971 0.0 0.0 0.0 34.25627252547053" Properties=species:S:1:pos:R:3:initial_magmoms:R:1 pbc="T T T"
Si       1.35822273      -1.35516510       1.35562423       0.00000000
Si      -1.35695037      -1.35615879      -1.35713151       0.00000000
Si       1.35739194       1.35923760      -1.35730279       0.00000000
Si      -1.35673286       1.36244673       1.35973499       0.00000000
Si       0.02098315      -2.70908239       2.70350654       0.00000000
Si       2.71372992      -2.71146724       0.00082215       0.00000000
Si       0.00005213      -2.71308321      -2.71481111       0.00000000
Si      -2.71425187      -2.71398079       0.00037682       0.00000000
Si      -2.71426816       0.00081450      -2.71477686       0.00000000
Si       2.71482135       0.00188964      -2.71450281       0.00000000
