10
Lattice="16.28999089631971 0.0 0.0 0.0 16.28999089631971 0.0 0.0 0.0 34.25627252547053" Properties=species:S:1:pos:R:3:initial_magmoms:R:1 pbc="T T T"
Si      -1.40045130      -0.68313418       1.74169264       0.00000000
Si       0.72257553       2.16491819      -0.54871728       0.00000000
Si       1.84164966      -1.48733957      -0.38839783       0.00000000
Si      -1.36458072      -0.81055782      -1.88269153       0.00000000
Si       0.09575262       0.12843851       3.30717091       0.00000000
Si       1.73099169       1.38221627      -2.50057227       0.00000000
Si      -1.90140138      -2.87026283       0.81403226       0.00000000
Si       0.16951374      -0.10233704      -3.54114138       0.00000000
Si      -1.28987478      -3.10931858      -1.40844743       0.00000000
Si      -1.28287008       3.34608980      -0.92622161       0.00000000
