10
Lattice="16.28999089631971 0.0 0.0 0.0 16.28999089631971 0.0 0.0 0.0 34.25627252547053" Properties=species:S:1:pos:R:3:initial_magmoms:R:1 pbc="T T T"
Si      -1.70301036      -0.98911090       1.18297252       0.00000000
Si       1.27829259      -1.43381161      -1.32013471       0.00000000
Si      -1.42072583       1.30040040      -1.34819061       0.00000000
Si       2.04340131       0.63075434       1.72350255       0.00000000
Si       0.07506432      -0.32996863       3.06302632       0.00000000
Si       2.68358202       2.51176390       0.23852656       0.00000000
Si      -3.48484544       0.64192439       1.16464540       0.00000000
Si       2.63391381      -0.06269514      -2.68973551       0.00000000
Si      -2.71478454       2.62367620       0.03555803       0.00000000
Si      -0.08348625       2.65431769      -2.69607292       0.00000000
