10
Lattice="16.28999089631971 0.0 0.0 0.0 16.28999089631971 0.0 0.0 0.0 34.25627252547053" Properties=species:S:1:pos:R:3:initial_magmoms:R:1 pbc="T T T"
Si      -0.27681597      -0.72382986      -2.21206034       0.00000000
Si       1.05357204      -1.55227410       1.41312684       0.00000000
Si       0.93621888       1.59615936      -1.54443947       0.00000000
Si      -1.65610656       1.17019215       1.40830013       0.00000000
Si      -2.55306654      -1.03941603      -1.65159315       0.00000000
Si       2.42246961       2.72275947      -0.07298646       0.00000000
Si       2.39616126      -0.17743068       2.78372107       0.00000000
Si      -1.02275136       3.22556661      -1.57198153       0.00000000
Si      -0.31949577       2.53262259       2.78546814       0.00000000
Si       2.40986115      -3.00145368       0.06995820       0.00000000
