10
Lattice="16.28999089631971 0.0 0.0 0.0 16.28999089631971 0.0 0.0 0.0 34.25627252547053" Properties=species:S:1:pos:R:3:initial_magmoms:R:1 pbc="T T T"
Si      -1.35775521      -1.35725022      -1.35617233       0.00000000
Si       1.35751086       1.35669636      -1.35709725       0.00000000
Si      -1.35742941       1.35734796       1.35720002       0.00000000
Si       1.35803214      -1.35819504       1.35757684       0.00000000
Si      -2.71203250      -0.00532683      -2.71364640       0.00000000
Si      -2.71346440       2.71393029      -0.00006851       0.00000000
Si      -0.00052128       2.71230129      -2.71553050       0.00000000
Si      -0.00581553      -2.71035138      -2.71751736       0.00000000
Si       0.00048870       2.71388142       2.71460558       0.00000000
Si      -0.00109143      -2.71335688       2.71532496       0.00000000
