10
Lattice="16.28999089631971 0.0 0.0 0.0 16.28999089631971 0.0 0.0 0.0 34.25627252547053" Properties=species:S:1:pos:R:3:initial_magmoms:R:1 pbc="T T T"
Si       1.35703845       1.35565380      -1.35654915       0.00000000
Si      -1.35765747       1.35755973       1.35737130       0.00000000
Si      -1.35773892      -1.35786924      -1.35720002       0.00000000
Si       1.35793440      -1.35777150       1.35720002       0.00000000
Si       2.71520091       0.00120546      -2.71326958       0.00000000
Si       2.71427238      -0.00073305       2.71450281       0.00000000
Si      -0.00130320       2.71467963      -2.71453706       0.00000000
Si      -2.71476108      -0.00068418       2.71450281       0.00000000
Si      -2.71507059       2.71459818       0.00006851       0.00000000
Si      -0.00011403      -2.71231758      -2.71738034       0.00000000
