10
Lattice="16.28999089631971 0.0 0.0 0.0 16.28999089631971 0.0 0.0 0.0 34.25627252547053" Properties=species:S:1:pos:R:3:initial_magmoms:R:1 pbc="T T T"
Si      -1.36249560       1.31877324      -1.33319321       0.00000000
Si       1.32616890      -1.35705474      -1.35742954       0.00000000
Si      -1.36130643      -1.34943102       1.34991371       0.00000000
Si       1.35402480       1.36590021       1.34755002       0.00000000
Si       0.10316457       2.49212565      -2.75630032       0.00000000
Si      -0.18127512      -2.31611220      -2.91665402       0.00000000
Si      -0.00296478      -2.70845685       2.70790162       0.00000000
Si      -2.71503801      -2.70138699      -0.01818324       0.00000000
Si       2.71252935       0.00721647       2.70656563       0.00000000
Si      -2.71730232       0.00794952       2.70707947       0.00000000
