10
Lattice="16.28999089631971 0.0 0.0 0.0 16.28999089631971 0.0 0.0 0.0 34.25627252547053" Properties=species:S:1:pos:R:3:initial_magmoms:R:1 pbc="T T T"
Si       1.36130643       1.34943102      -1.34991371       0.00000000
Si      -1.35599589       1.35738054       1.35716576       0.00000000
Si      -1.35373158      -1.35195597      -1.36809695       0.00000000
Si       1.35834165      -1.35902583       1.35798791       0.00000000
Si      -0.00118917       2.66820426      -2.68310692       0.00000000
Si       2.68747533      -0.00762372      -2.70734324       0.00000000
Si       0.02749752      -2.52680706      -2.85955080       0.00000000
Si      -2.71130760       2.71611315      -0.00459034       0.00000000
Si      -2.71376739      -0.00008145       2.71460558       0.00000000
Si       0.00130320      -2.71467963       2.71453706       0.00000000
