10
Lattice="16.28999089631971 0.0 0.0 0.0 16.28999089631971 0.0 0.0 0.0 34.25627252547053" Properties=species:S:1:pos:R:3:initial_magmoms:R:1 pbc="T T T"
Si       1.47492918       1.10340315      -1.49237535       0.00000000
Si       1.63823643      -1.02956058       1.38388567       0.00000000
Si      -1.00988226       1.67145174       1.38302926       0.00000000
Si      -0.73278936      -2.35693494      -0.53987916       0.00000000
Si       2.29614066      -1.07641062      -2.06061871       0.00000000
Si      -2.64642453      -1.58182416      -1.66379383       0.00000000
Si       0.17257626      -2.20291299       2.80699278       0.00000000
Si       2.25697950       2.91084448       0.07827563       0.00000000
Si      -1.23294123       3.52279951      -0.04374528       0.00000000
Si      -2.55974544       0.53613648       2.72735033       0.00000000
