10
Lattice="16.28999089631971 0.0 0.0 0.0 16.28999089631971 0.0 0.0 0.0 34.25627252547053" Properties=species:S:1:pos:R:3:initial_magmoms:R:1 pbc="T T T"
Si      -1.35661491       1.35702216      -1.35733704       0.00000000
Si       1.35681039       1.35695700       1.35843325       0.00000000
Si      -1.35852084      -1.35711827       1.35723428       0.00000000
Si       1.35824391      -1.35796861      -1.35737130       0.00000000
Si      -2.71456560      -0.00089595       2.71135123       0.00000000
Si      -2.71407690       2.71453302      -0.00030831       0.00000000
Si      -2.71357191       0.00094482      -2.71553050       0.00000000
Si       2.71388142      -0.00185706      -2.71522219       0.00000000
Si      -2.71432125      -2.71520237       0.00006851       0.00000000
Si       0.00030951       2.71583622      -2.71481111       0.00000000
