10
Lattice="16.28999089631971 0.0 0.0 0.0 16.28999089631971 0.0 0.0 0.0 34.25627252547053" Properties=species:S:1:pos:R:3:initial_magmoms:R:1 pbc="T T T"
Si       1.34438112       1.34418564       1.36470215       0.00000000
Si       1.35604476      -1.35622232      -1.35411695       0.00000000
Si      -1.35596331       1.35755973      -1.35418547       0.00000000
Si      -1.33498179      -1.35786435       1.38666043       0.00000000
Si      -0.07224615       2.65580757       2.72597867       0.00000000
Si       0.00024435      -2.71430642      -2.71128272       0.00000000
Si       2.71456560       0.00089595      -2.71135123       0.00000000
Si      -2.71466334       0.00043983      -2.71138549       0.00000000
Si       0.00048870       2.71542897      -2.71165954       0.00000000
Si      -2.71189404      -2.71543270       0.00750213       0.00000000
