10
Lattice="16.28999089631971 0.0 0.0 0.0 16.28999089631971 0.0 0.0 0.0 34.25627252547053" Properties=species:S:1:pos:R:3:initial_magmoms:R:1 pbc="T T T"
Si      -0.16220930      -0.70599231      -2.20788651       0.00000000
Si       2.00118903       1.04047488       0.63867430       0.00000000
Si      -0.11430856      -2.02904656       1.20561593       0.00000000
Si      -2.04492835       1.13661846       0.57557421       0.00000000
Si       1.71371940      -0.89816544       2.23947081       0.00000000
Si      -2.47346938      -1.24354602      -2.09946535       0.00000000
Si       1.21159319       3.23188713       0.96931603       0.00000000
Si      -3.35821186       0.80273862      -1.34784805       0.00000000
Si       0.52725680       1.15414650      -3.49928019       0.00000000
Si       1.31565696      -2.48967238      -2.71344086       0.00000000
