10
Lattice="16.28999089631971 0.0 0.0 0.0 16.28999089631971 0.0 0.0 0.0 34.25627252547053" Properties=species:S:1:pos:R:3:initial_magmoms:R:1 pbc="T T T"
Si       1.62329850      -1.60365276      -0.53799506       0.00000000
Si      -2.23813197      -0.66673341      -0.28436148       0.00000000
Si      -0.15490161       0.10454922       2.36851426       0.00000000
Si       0.17185950       1.73587869      -1.62590637       0.00000000
Si      -2.13232842       0.79288317      -2.50009268       0.00000000
Si      -1.89488538       2.79515223      -1.10534776       0.00000000
Si      -2.17735398       1.20177846       2.60368370       0.00000000
Si       3.57493824      -0.40783644      -0.18751894       0.00000000
Si      -1.69793928       3.02218596       1.25477371       0.00000000
Si       3.16941498       0.67678434       1.92599149       0.00000000
