10
Lattice="16.28999089631971 0.0 0.0 0.0 16.28999089631971 0.0 0.0 0.0 34.25627252547053" Properties=species:S:1:pos:R:3:initial_magmoms:R:1 pbc="T T T"
Si      -2.02245237       1.09722924       0.23516944       0.00000000
Si       1.78872345       0.56537703       1.37268386       0.00000000
Si       0.15490161      -0.10454922      -2.36851426       0.00000000
Si      -0.06375906      -2.17847799       0.96325267       0.00000000
Si      -0.94622094      -0.00566892       3.12013156       0.00000000
Si       1.89972351      -1.63414764       2.15293942       0.00000000
Si      -3.25892853      -0.69131502      -0.58848883       0.00000000
Si       3.32431659       0.57223512      -0.44252278       0.00000000
Si      -2.08323036      -0.77128263      -2.65287574       0.00000000
Si      -1.54303767       2.91763674      -1.11374055       0.00000000
