10
Lattice="16.28999089631971 0.0 0.0 0.0 16.28999089631971 0.0 0.0 0.0 34.25627252547053" Properties=species:S:1:pos:R:3:initial_magmoms:R:1 pbc="T T T"
Si       1.32375798       0.45916460       1.91109000       0.00000000
Si       0.08923662       2.03790181      -1.27097693       0.00000000
Si       1.05676488      -1.29678241      -1.75227783       0.00000000
Si      -2.06270496      -0.93670825       0.91608175       0.00000000
Si      -2.26470096      -0.04908992      -2.35909378       0.00000000
Si       3.28440609       0.55073884       0.28076457       0.00000000
Si      -2.15326107       2.22324943      -1.70664845       0.00000000
Si       2.03207976      -1.71217741       2.51389796       0.00000000
Si      -3.42032985      -1.54662214      -0.91378658       0.00000000
Si       3.41956422      -1.43593159      -1.08684937       0.00000000
