10
Lattice="16.28999089631971 0.0 0.0 0.0 16.28999089631971 0.0 0.0 0.0 34.25627252547053" Properties=species:S:1:pos:R:3:initial_magmoms:R:1 pbc="T T T"
Si       1.35633798       1.35703845       1.35730279       0.00000000
Si      -1.35645201      -1.35786924       1.35747407       0.00000000
Si       1.35746199      -1.35751086      -1.35702874       0.00000000
Si      -1.35793440       1.35777150      -1.35720002       0.00000000
Si      -0.00048870      -2.71542897       2.71165954       0.00000000
Si      -0.00089595       2.71342530      -2.71374917       0.00000000
Si       2.71407690      -2.71453302       0.00030831       0.00000000
Si       0.00050499      -2.71358820      -2.71522219       0.00000000
Si       2.71438641       0.00130320      -2.71450281       0.00000000
Si       0.00356751       2.71233387       2.71738034       0.00000000
