10
Lattice="16.28999089631971 0.0 0.0 0.0 16.28999089631971 0.0 0.0 0.0 34.25627252547053" Properties=species:S:1:pos:R:3:initial_magmoms:R:1 pbc="T T T"
Si       1.95911685       1.14857532       0.38545179       0.00000000
Si      -1.44712215       1.27387800       1.32112814       0.00000000
Si      -1.00954017      -0.24909039      -2.09634803       0.00000000
Si       0.57166497      -1.94484681       1.19653801       0.00000000
Si      -0.03907971       1.67686002       3.27202396       0.00000000
Si       2.28203352       1.13236677       2.70398613       0.00000000
Si       0.27544761      -1.75835889      -3.43032228       0.00000000
Si      -1.87501158       3.40105878       0.18460716       0.00000000
Si       0.33422193      -3.94711587      -0.19820690       0.00000000
Si      -2.20190301      -3.24579879      -0.68885977       0.00000000
