10
Lattice="16.28999089631971 0.0 0.0 0.0 16.28999089631971 0.0 0.0 0.0 34.25627252547053" Properties=species:S:1:pos:R:3:initial_magmoms:R:1 pbc="T T T"
Si      -0.47941470      -1.82040750       1.34891000       0.00000000
Si      -1.13565735       1.62422703       1.20887028       0.00000000
Si      -0.19694610      -0.22703373      -2.36012147       0.00000000
Si       2.19810744       0.95951358       0.45064152       0.00000000
Si       1.51342245       2.85017985      -0.85267336       0.00000000
Si       1.54303767      -2.91763674       1.11374055       0.00000000
Si      -0.80769078       3.39467310      -0.28463553       0.00000000
Si      -0.15987006       1.23512409       3.42158692       0.00000000
Si       1.86979878      -1.28630727      -2.88068008       0.00000000
Si       1.69793928      -3.02218596      -1.25477371       0.00000000
