10
Lattice="16.28999089631971 0.0 0.0 0.0 16.28999089631971 0.0 0.0 0.0 34.25627252547053" Properties=species:S:1:pos:R:3:initial_magmoms:R:1 pbc="T T T"
Si       0.28298988      -0.72672948      -2.17866589       0.00000000
Si      -2.27082600      -0.48218400       0.18673105       0.00000000
Si       1.35922131      -1.82962764       0.70629622       0.00000000
Si       0.60253452       2.32880211      -0.10598897       0.00000000
Si      -0.37325277       2.71790505      -2.31870561       0.00000000
Si       1.39292532      -1.56118473       3.07251531       0.00000000
Si      -3.26586807       1.45054305       1.10089445       0.00000000
Si       2.87525016       2.32267707       0.68015867       0.00000000
Si       0.76240458       1.09367802      -3.52757589       0.00000000
Si       2.30544225      -1.82395872      -2.41383534       0.00000000
