10
Lattice="16.28999089631971 0.0 0.0 0.0 16.28999089631971 0.0 0.0 0.0 34.25627252547053" Properties=species:S:1:pos:R:3:initial_magmoms:R:1 pbc="T T T"
Si       0.03919374      -2.35312308       0.13969716       0.00000000
Si       0.01897785       1.15580808       2.08428981       0.00000000
Si      -1.89012870       0.70190352      -1.30629517       0.00000000
Si       2.11931271       0.09168012      -1.22103126       0.00000000
Si       1.88419914      -2.26463580      -1.27515620       0.00000000
Si       0.36211041      -2.36933163       2.45823149       0.00000000
Si       1.50011352      -0.42533190       3.06432806       0.00000000
Si      -3.79493469      -0.10063962      -0.06114748       0.00000000
Si       1.30880376       3.08816046       1.79924321       0.00000000
Si       3.89669832       0.65945178       0.17165828       0.00000000
