10
Lattice="16.28999089631971 0.0 0.0 0.0 16.28999089631971 0.0 0.0 0.0 34.25627252547053" Properties=species:S:1:pos:R:3:initial_magmoms:R:1 pbc="T T T"
Si       2.28713229       0.47433222       0.22252887       0.00000000
Si      -0.68126409       1.92036294       1.23637808       0.00000000
Si      -0.90859104       0.14098995      -2.21131214       0.00000000
Si      -0.58683096      -2.03312232       1.13148531       0.00000000
Si      -0.50784075       0.88062111       3.36335123       0.00000000
Si      -0.43901550      -1.49553603       3.41521525       0.00000000
Si       2.47891446       2.80297143      -0.36260285       0.00000000
Si      -0.11585448      -1.77267780      -3.44327116       0.00000000
Si      -2.75729427      -2.70687672       0.61068691       0.00000000
Si      -2.92146489       2.50445718       0.82711816       0.00000000
