10
Lattice="16.28999089631971 0.0 0.0 0.0 16.28999089631971 0.0 0.0 0.0 34.25627252547053" Properties=species:S:1:pos:R:3:initial_magmoms:R:1 pbc="T T T"
Si       1.48305789      -1.14653907      -1.35284947       0.00000000
Si      -2.28713229      -0.47433222      -0.22252887       0.00000000
Si       0.19178217       2.32863921      -0.58513172       0.00000000
Si       1.34030862      -0.84297492       1.88173236       0.00000000
Si       3.22778205      -0.92709648       0.44954532       0.00000000
Si      -2.96839638       1.44603072       1.01384921       0.00000000
Si       3.31517790       0.79127046      -1.00994399       0.00000000
Si      -1.36834371       3.28927680       0.92896212       0.00000000
Si       2.45273643       2.80261305      -0.17066485       0.00000000
Si       1.05612957      -0.84750354      -3.62774129       0.00000000
