10
Lattice="16.28999089631971 0.0 0.0 0.0 16.28999089631971 0.0 0.0 0.0 34.25627252547053" Properties=species:S:1:pos:R:3:initial_magmoms:R:1 pbc="T T T"
Si      -1.32486570       1.29246489      -1.40382968       0.00000000
Si       1.33139799      -1.39250178      -1.30868626       0.00000000
Si       1.35521397       1.35487188       1.34820089       0.00000000
Si      -1.35987291      -1.36324494       1.34224030       0.00000000
Si      -2.68736130       2.68672599      -0.00342563       0.00000000
Si      -2.61073314      -0.23701950      -2.76161004       0.00000000
Si       2.69342118       2.70476485      -0.01174648       0.00000000
Si      -0.00182448       2.70753448       2.70238636       0.00000000
Si       2.71371852      -0.00609246       2.70269466       0.00000000
Si      -2.71705797      -0.00446346       2.70163272       0.00000000
