10
Lattice="16.28999089631971 0.0 0.0 0.0 16.28999089631971 0.0 0.0 0.0 34.25627252547053" Properties=species:S:1:pos:R:3:initial_magmoms:R:1 pbc="T T T"
Si      -0.32931864      -0.53825418       2.23518878       0.00000000
Si       0.72511677      -1.68362037      -1.53721683       0.00000000
Si      -1.97933274       1.39713207      -1.06924163       0.00000000
Si       2.16407763       0.26564333       1.64375390       0.00000000
Si      -0.43580637       2.83492331       0.19628855       0.00000000
Si       1.77002253      -0.02884959      -2.83392024       0.00000000
Si      -2.25456858       0.43028473       3.22077654       0.00000000
Si      -3.75308568       0.25676528       1.29314075       0.00000000
Si      -1.00590750      -2.66584221      -2.87958388       0.00000000
Si      -1.02991896       2.81280149      -2.77760290       0.00000000
