10
Lattice="16.28999089631971 0.0 0.0 0.0 16.28999089631971 0.0 0.0 0.0 34.25627252547053" Properties=species:S:1:pos:R:3:initial_magmoms:R:1 pbc="T T T"
Si       1.28982591       1.93235238      -0.28504660       0.00000000
Si       1.48113567      -1.58113998       0.98003825       0.00000000
Si      -0.01897785      -1.15580808      -2.08428981       0.00000000
Si      -2.23080147       0.70050258       0.69591657       0.00000000
Si       0.44414685       2.83188618       1.93599432       0.00000000
Si       0.34313256      -3.52513971       0.37394168       0.00000000
Si      -0.03714120       3.03700986      -1.89875773       0.00000000
Si      -2.77071723      -1.06697871       2.17393853       0.00000000
Si      -1.97798067      -2.98064646       0.94197951       0.00000000
Si      -1.91865249       2.97103536       1.27056586       0.00000000
