10
Lattice="16.28999089631971 0.0 0.0 0.0 16.28999089631971 0.0 0.0 0.0 34.25627252547053" Properties=species:S:1:pos:R:3:initial_magmoms:R:1 pbc="T T T"
Si       2.26095426       0.47397384       0.41446687       0.00000000
Si      -1.56012588       0.96063759       1.51409384       0.00000000
Si      -0.19178217      -2.32863921       0.58513172       0.00000000
Si      -0.17264142       1.23688341      -2.08665349       0.00000000
Si      -0.30779955       3.22355384      -0.71903956       0.00000000
Si       3.12339573      -1.53736875      -0.42481227       0.00000000
Si      -3.16017855      -0.88260849       1.59898093       0.00000000
Si      -2.47891446      -2.80297143       0.36260285       0.00000000
Si       1.29127572      -3.47517828      -0.76771775       0.00000000
Si       2.64352491       0.35943885       2.75526780       0.00000000
