10
Lattice="16.28999089631971 0.0 0.0 0.0 16.28999089631971 0.0 0.0 0.0 34.25627252547053" Properties=species:S:1:pos:R:3:initial_magmoms:R:1 pbc="T T T"
Si      -0.58608162      -2.00990907       1.07184511       0.00000000
Si       2.30254263       0.48368268       0.20831251       0.00000000
Si      -0.97230123       1.99634994       0.86342983       0.00000000
Si      -0.74486025      -0.58567437      -2.18914832       0.00000000
Si      -2.76428268       1.79432136      -0.64254526       0.00000000
Si      -1.45318203       1.58566764      -2.79195628       0.00000000
Si       3.45879054      -1.18687311      -0.94797436       0.00000000
Si       2.81092095       2.46580820      -0.97383786       0.00000000
Si       1.20958137      -3.09073428       2.00436988       0.00000000
Si      -0.69348159       2.15983313       3.19069952       0.00000000
