10
Lattice="16.28999089631971 0.0 0.0 0.0 16.28999089631971 0.0 0.0 0.0 34.25627252547053" Properties=species:S:1:pos:R:3:initial_magmoms:R:1 pbc="T T T"
Si       1.79566299      -1.08082521       0.93252477       0.00000000
Si      -1.83842424      -0.46631754       1.36504471       0.00000000
Si       0.58608162       2.00990907      -1.07184511       0.00000000
Si      -1.58540796      -1.45875321      -1.04913319       0.00000000
Si       0.60494544      -3.04592049       1.55396816       0.00000000
Si      -0.15877863       1.42423470      -3.26099343       0.00000000
Si      -1.75883130      -0.41901138      -3.17610634       0.00000000
Si       3.42542862      -1.13137308      -0.79378679       0.00000000
Si      -2.65963572       1.71349623       1.93328808       0.00000000
Si       2.38132107       0.16762410       2.95234424       0.00000000
