10
Lattice="16.28999089631971 0.0 0.0 0.0 16.28999089631971 0.0 0.0 0.0 34.25627252547053" Properties=species:S:1:pos:R:3:initial_magmoms:R:1 pbc="T T T"
Si      -1.56056571      -1.23360782      -1.27843744       0.00000000
Si      -1.37033109       1.33727705       1.41866608       0.00000000
Si       1.32131448      -1.38090628       1.43261525       0.00000000
Si       1.71844839       0.95201855      -1.42423072       0.00000000
Si      -0.14924898      -1.55987406      -3.15492708       0.00000000
Si       3.36790863      -1.01376743      -1.18584183       0.00000000
Si      -2.85472476       2.57363918       0.03009415       0.00000000
Si       2.59191819      -2.84877144       0.15551671       0.00000000
Si       2.76498315       2.68908641      -0.05412152       0.00000000
Si      -0.01656693       2.69651465       2.78574562       0.00000000
