10
Lattice="16.28999089631971 0.0 0.0 0.0 16.28999089631971 0.0 0.0 0.0 34.25627252547053" Properties=species:S:1:pos:R:3:initial_magmoms:R:1 pbc="T T T"
Si       1.35679410      -1.35691795      -1.35696023       0.00000000
Si      -1.35778779       1.35784869      -1.35702874       0.00000000
Si       1.35762489       1.35768579       1.35761110       0.00000000
Si      -1.35757602      -1.35773245       1.35774812       0.00000000
Si       2.71366148       0.00006199      -2.71453706       0.00000000
Si      -0.00042354      -2.71470574      -2.71361214       0.00000000
Si      -0.00215028       2.71396024      -2.71487963       0.00000000
Si       2.71429939      -2.71454284       0.00017128       0.00000000
Si      -2.71523349      -2.71449397       0.00013703       0.00000000
Si      -2.71596654      -0.00107880      -2.71392045       0.00000000
