10
Lattice="16.28999089631971 0.0 0.0 0.0 16.28999089631971 0.0 0.0 0.0 34.25627252547053" Properties=species:S:1:pos:R:3:initial_magmoms:R:1 pbc="T T T"
Si      -0.30530718       1.44792525       1.92403888       0.00000000
Si       1.67373234       1.37104459      -1.20061451       0.00000000
Si       1.04684427      -2.07994208       1.23596700       0.00000000
Si      -2.49339627      -0.80389751       0.59143488       0.00000000
Si      -2.16407763      -0.26564333      -1.64375390       0.00000000
Si      -1.16642916      -1.90855499       2.20514601       0.00000000
Si       0.31532553      -0.07537562       3.75452382       0.00000000
Si       2.39882909      -0.96847538       2.78489949       0.00000000
Si       1.61647299       0.52077175      -3.40730205       0.00000000
Si       1.64633256       2.64374157       2.27451500       0.00000000
