10
Lattice="16.28999089631971 0.0 0.0 0.0 16.28999089631971 0.0 0.0 0.0 34.25627252547053" Properties=species:S:1:pos:R:3:initial_magmoms:R:1 pbc="T T T"
Si       0.33997230       0.24423597       2.25875710       0.00000000
Si      -0.11100006       2.19952467      -0.78025556       0.00000000
Si       1.56164085      -1.36878517      -1.07756591       0.00000000
Si      -1.96348257      -0.54433035      -1.18968675       0.00000000
Si      -1.89972351       1.63414764      -2.15293942       0.00000000
Si       0.60527124      -3.29391035      -0.05618032       0.00000000
Si      -2.84594445       1.62847872       0.96719214       0.00000000
Si       2.65123238       0.78178968       2.15033594       0.00000000
Si       0.49910931      -1.59735521      -3.22896380       0.00000000
Si       1.42459308       2.20638276      -2.59546219       0.00000000
