10
Lattice="16.28999089631971 0.0 0.0 0.0 16.28999089631971 0.0 0.0 0.0 34.25627252547053" Properties=species:S:1:pos:R:3:initial_magmoms:R:1 pbc="T T T"
Si       1.35734796       1.35630540       1.35764535       0.00000000
Si      -1.35754344       1.35713619      -1.35675469       0.00000000
Si       1.35804843      -1.35848826      -1.35737130       0.00000000
Si      -1.35878148      -1.35819504       1.35894709       0.00000000
Si      -2.71461447       2.71435383       0.00034256       0.00000000
Si       2.71489772       2.71450044       0.00030831       0.00000000
Si      -2.71528236       0.00068418      -2.71429727       0.00000000
Si      -0.00073305       2.71572219      -2.71422876       0.00000000
Si      -2.71208952       0.00071676       2.71809972       0.00000000
Si      -2.71559187      -2.71515204       0.00051384       0.00000000
