10
Lattice="16.28999089631971 0.0 0.0 0.0 16.28999089631971 0.0 0.0 0.0 34.25627252547053" Properties=species:S:1:pos:R:3:initial_magmoms:R:1 pbc="T T T"
Si      -1.35330804       1.35891180       1.35915263       0.00000000
Si      -1.35681039      -1.35695700      -1.35843325       0.00000000
Si       1.35951453      -1.35654975       1.35949519       0.00000000
Si       1.35878148       1.35819504      -1.35894709       0.00000000
Si      -2.71454931       2.71461447      -0.00143876       0.00000000
Si      -2.71342530       0.00006516      -2.71577029       0.00000000
Si      -2.71533123      -2.71407527      -0.00119897       0.00000000
Si       2.71612944       2.71450044      -0.00130174       0.00000000
Si       0.00143352      -2.71492561      -2.71580455       0.00000000
Si       0.00123804       2.71533123      -2.71570178       0.00000000
