10
Lattice="16.28999089631971 0.0 0.0 0.0 16.28999089631971 0.0 0.0 0.0 34.25627252547053" Properties=species:S:1:pos:R:3:initial_magmoms:R:1 pbc="T T T"
Si       1.35823577      -1.35316143       1.35949519       0.00000000
Si      -1.35734796      -1.35630540      -1.35764535       0.00000000
Si       1.35754976       1.35819504      -1.35733704       0.00000000
Si      -1.35928647       1.35830907       1.36011180       0.00000000
Si       2.69729073      -0.00306252       2.71727757       0.00000000
Si      -2.71489140       0.00083079      -2.71440004       0.00000000
Si       0.00070047      -2.71479366      -2.71501665       0.00000000
Si      -0.00009774       2.71606428      -2.71392045       0.00000000
Si       2.71439197       2.71604799      -0.00003426       0.00000000
Si       2.71496863      -2.71560816      -0.00023979       0.00000000
