10
Lattice="16.28999089631971 0.0 0.0 0.0 16.28999089631971 0.0 0.0 0.0 34.25627252547053" Properties=species:S:1:pos:R:3:initial_magmoms:R:1 pbc="T T T"
Si       1.07895186       0.87205257      -1.87447002       0.00000000
Si       1.19809692      -2.07591615       0.18758745       0.00000000
Si      -2.27271564       0.00612504      -0.78614764       0.00000000
Si       0.46538901       1.36262592       1.95130689       0.00000000
Si       3.42671553      -1.21472901       0.34561173       0.00000000
Si       3.36429225       0.22954239      -1.60709967       0.00000000
Si      -2.87525016      -2.32267707      -0.68015867       0.00000000
Si       0.08526186      -0.26948547      -3.75709305       0.00000000
Si       0.82275903       3.56970915       1.05516230       0.00000000
Si      -3.39151284       1.90522953       0.08238638       0.00000000
