10
Lattice="16.28999089631971 0.0 0.0 0.0 16.28999089631971 0.0 0.0 0.0 34.25627252547053" Properties=species:S:1:pos:R:3:initial_magmoms:R:1 pbc="T T T"
Si      -0.41295150      -1.41434667       1.88173236       0.00000000
Si       2.22861861       0.86118714       0.15802427       0.00000000
Si      -1.19809692       2.07591615      -0.18758745       0.00000000
Si       0.02081862      -1.50534261      -1.90889760       0.00000000
Si      -2.71412577      -2.07638856      -0.16144990       0.00000000
Si      -0.11914506       2.94796872      -2.06205748       0.00000000
Si       2.16619533       2.30545854      -1.79468712       0.00000000
Si       3.47251716      -1.06293879      -0.26969978       0.00000000
Si       0.47179098      -3.46063131       1.13011506       0.00000000
Si       0.13181868      -3.70486728      -1.12864204       0.00000000
