10
Lattice="16.28999089631971 0.0 0.0 0.0 16.28999089631971 0.0 0.0 0.0 34.25627252547053" Properties=species:S:1:pos:R:3:initial_magmoms:R:1 pbc="T T T"
Si       1.91001132      -0.86964165      -1.05156539       0.00000000
Si      -0.32786883      -1.82283471       1.51680008       0.00000000
Si       0.48723390       1.74891069       1.57657731       0.00000000
Si      -1.85324814       0.54644805      -1.46151043       0.00000000
Si      -1.63862739       1.28234880       2.60700656       0.00000000
Si       1.55630557      -1.50732999       2.85097987       0.00000000
Si      -2.22848829      -1.06951995       2.60224494       0.00000000
Si       3.03631332      -1.87729218       0.97366658       0.00000000
Si       3.00746210       0.96661602      -2.06702464       0.00000000
Si      -3.72834117       0.64467675       0.01616897       0.00000000
