10
Lattice="16.28999089631971 0.0 0.0 0.0 16.28999089631971 0.0 0.0 0.0 34.25627252547053" Properties=species:S:1:pos:R:3:initial_magmoms:R:1 pbc="T T T"
Si      -1.35420399       1.26936567       1.41886134       0.00000000
Si      -1.36847403      -1.33522614      -1.37014890       0.00000000
Si       1.34131860       1.37981332      -1.36644922       0.00000000
Si       1.32582162      -1.45424088       1.56595786       0.00000000
Si       0.65632410       2.08463034       2.48923343       0.00000000
Si       2.43815918       0.45359505       2.50756055       0.00000000
Si      -2.39910975      -0.38540511       2.71556475       0.00000000
Si      -0.78218064      -2.28623634       2.86646372       0.00000000
Si       2.70157337      -2.70655092       0.02415069       0.00000000
Si      -0.01609452      -2.69074962      -2.72724615       0.00000000
