10
Lattice="16.28999089631971 0.0 0.0 0.0 16.28999089631971 0.0 0.0 0.0 34.25627252547053" Properties=species:S:1:pos:R:3:initial_magmoms:R:1 pbc="T T T"
Si      -2.00118903      -1.04047488      -0.63867430       0.00000000
Si       1.67220108       0.59080572      -1.54393107       0.00000000
Si      -0.78959585       2.19141225       0.33064173       0.00000000
Si      -0.28746963      -1.93864032       1.60079651       0.00000000
Si       1.15461891       3.29810598       1.22027762       0.00000000
Si       2.09362338       2.90965464      -1.00131141       0.00000000
Si       1.78574238      -0.70416783       3.22468176       0.00000000
Si      -2.11549759      -3.06952144       0.56694163       0.00000000
Si       0.83644263       0.37071153      -3.74044449       0.00000000
Si       3.67764669      -0.59036589      -1.16642673       0.00000000
