10
Lattice="16.28999089631971 0.0 0.0 0.0 16.28999089631971 0.0 0.0 0.0 34.25627252547053" Properties=species:S:1:pos:R:3:initial_magmoms:R:1 pbc="T T T"
Si       1.34726119       1.32675534      -1.37678434       0.00000000
Si       1.35411928      -1.35830907       1.35586402       0.00000000
Si      -1.36106939       1.35565380       1.35535018       0.00000000
Si      -1.35719550      -1.36355445      -1.38226192       0.00000000
Si      -0.16751496       2.56461615      -2.69019454       0.00000000
Si       2.71197223      -0.00117288       2.71299553       0.00000000
Si      -0.00312116       2.71412577       2.71302979       0.00000000
Si      -0.00167135      -2.71640637       2.71275574       0.00000000
Si       2.71127176      -2.71803537      -0.00270625       0.00000000
Si       2.71443202       2.71502172      -0.00620039       0.00000000
