10
Lattice="16.28999089631971 0.0 0.0 0.0 16.28999089631971 0.0 0.0 0.0 34.25627252547053" Properties=species:S:1:pos:R:3:initial_magmoms:R:1 pbc="T T T"
Si       1.35684221       1.35785295       1.35730279       0.00000000
Si      -1.35764750       1.35786924      -1.35658341       0.00000000
Si      -1.35754976      -1.35819504       1.35733704       0.00000000
Si       1.35877583      -1.35798327      -1.35747407       0.00000000
Si       0.00068602      -2.71135647       2.71683224       0.00000000
Si       2.71456647       0.00011403      -2.71436578       0.00000000
Si      -0.00062221       2.71407690      -2.71487963       0.00000000
Si       2.71481082      -2.71456560      -0.00020554       0.00000000
Si      -2.71489772      -2.71450044      -0.00030831       0.00000000
Si      -2.71463708       2.71515204       0.00003426       0.00000000
