10
Lattice="16.28999089631971 0.0 0.0 0.0 16.28999089631971 0.0 0.0 0.0 34.25627252547053" Properties=species:S:1:pos:R:3:initial_magmoms:R:1 pbc="T T T"
Si      -1.47385453       1.23818661      -1.28763919       0.00000000
Si       1.34909400       1.35338949       1.34320632       0.00000000
Si       1.18365276      -1.51158168      -1.34277470       0.00000000
Si      -1.36839307      -1.36179513       1.34817349       0.00000000
Si      -2.29985527      -0.57554199      -2.57739748       0.00000000
Si      -0.43753360      -2.58401754      -2.74337885       0.00000000
Si       2.70548248      -0.00495216       2.70311259       0.00000000
Si      -0.01007588       2.70996218       2.70297557       0.00000000
Si       2.69530123       2.71910121      -0.04094312       0.00000000
Si      -0.00990168      -2.72054403       2.70277003       0.00000000
