10
Lattice="16.28999089631971 0.0 0.0 0.0 16.28999089631971 0.0 0.0 0.0 34.25627252547053" Properties=species:S:1:pos:R:3:initial_magmoms:R:1 pbc="T T T"
Si       1.35869514       1.35651556      -1.35641212       0.00000000
Si      -1.35730044      -1.35845568      -1.35675469       0.00000000
Si       1.35783177      -1.35588186       1.35911837       0.00000000
Si      -1.35786502       1.35537832       1.36096821       0.00000000
Si       0.02126008       2.71867135       2.70381485       0.00000000
Si      -2.69918362      -0.02443500       2.72741743       0.00000000
Si      -2.71397494       2.71377295       0.00068513       0.00000000
Si      -2.71480573      -0.00083079      -2.71388619       0.00000000
Si       0.00032906       2.71467053      -2.71450281       0.00000000
Si       2.71563585      -0.00079821      -2.71422876       0.00000000
