10
Lattice="10.86 0.0 0.0 0.0 10.86 0.0 0.0 0.0 10.86" Properties=species:S:1:pos:R:3:initial_magmoms:R:1 pbc="T T T"
Si      -0.06589848      -1.65382596       1.55521716       0.00000000
Si      -1.56544728       1.54293450       0.77201568       0.00000000
Si       1.03114614       1.55682444      -1.52829522       0.00000000
Si      -1.45322004      -1.15264782      -1.73707872       0.00000000
Si      -3.06356256       0.36512406       2.25542652       0.00000000
Si      -0.34856256       3.08012406       2.25542652       0.00000000
Si      -3.06356256      -2.34987594      -0.45957348       0.00000000
Si       2.36643744       3.08012406      -0.45957348       0.00000000
Si      -1.73851224      -0.99413526       3.38817882       0.00000000
Si      -0.34856256      -2.34987594      -3.17457348       0.00000000
