10
Lattice="16.28999089631971 0.0 0.0 0.0 16.28999089631971 0.0 0.0 0.0 34.26581377546328" Properties=species:S:1:pos:R:3:initial_magmoms:R:1 pbc="T T T"
Si      -1.35052289      -1.35985988       1.38312664       0.00000000
Si       1.36833905       1.35252612       1.37942593       0.00000000
Si       1.34571713      -1.41474903      -1.37415584       0.00000000
Si      -1.38000779       1.43374806      -1.46209568       0.00000000
Si       2.52924101       0.21105324      -2.62261845       0.00000000
Si      -2.70638846       2.70905958       0.03051372       0.00000000
Si      -2.69456192      -2.72421647      -0.00494799       0.00000000
Si       2.72973833       2.70787041      -0.00846023       0.00000000
Si       2.73249134      -2.71678823       0.01337395       0.00000000
Si      -2.70757763      -0.00467523       2.74375433       0.00000000
