10
Lattice="16.28999089631971 0.0 0.0 0.0 16.28999089631971 0.0 0.0 0.0 34.26581377546328" Properties=species:S:1:pos:R:3:initial_magmoms:R:1 pbc="T T T"
Si      -1.35806472      -1.35698453      -1.35737244       0.00000000
Si       1.35736425      -1.35760024       1.35788643       0.00000000
Si      -1.35821133       1.35762000       1.35750950       0.00000000
Si       1.35723393       1.35781548      -1.35846895       0.00000000
Si      -0.00099369       2.71405572       2.71453928       0.00000000
Si       2.71474479      -2.71421929       0.00013706       0.00000000
Si      -2.71366965      -0.00269111      -2.71549873       0.00000000
Si       2.71494027       2.71460958       0.00013706       0.00000000
Si      -2.71531494       2.71503312       0.00034266       0.00000000
Si      -0.00042354      -2.71558765       2.71484768       0.00000000
