10
Lattice="16.28999089631971 0.0 0.0 0.0 16.28999089631971 0.0 0.0 0.0 34.26581377546328" Properties=species:S:1:pos:R:3:initial_magmoms:R:1 pbc="T T T"
Si       1.35718506      -1.35646089      -1.36292350       0.00000000
Si      -1.35842310       1.36199054      -1.36278644       0.00000000
Si      -1.34149779      -1.36072887       1.38406552       0.00000000
Si       1.35713619       1.36567208       1.39712081       0.00000000
Si       2.71503801      -2.71397175      -0.00260420       0.00000000
Si      -2.71349046       2.71609517      -0.00962870       0.00000000
Si      -2.71919196      -2.71141422      -0.00113077       0.00000000
Si       2.71077003       2.72000477      -0.00113077       0.00000000
Si      -0.00024435      -2.71327128      -2.71974769       0.00000000
Si       2.71497285       0.00152653      -2.71988475       0.00000000
