10
Lattice="16.28999089631971 0.0 0.0 0.0 16.28999089631971 0.0 0.0 0.0 34.26581377546328" Properties=species:S:1:pos:R:3:initial_magmoms:R:1 pbc="T T T"
Si       1.35363384       1.35433268      -1.39825158       0.00000000
Si      -1.35713619      -1.36567208      -1.39712081       0.00000000
Si      -1.53292158       1.39924421       1.42696635       0.00000000
Si       1.50897528      -1.30136086       1.56087722       0.00000000
Si       2.69351892       2.71648619      -0.02463713       0.00000000
Si      -2.69863398      -2.72640096      -0.01305528       0.00000000
Si       2.70881523      -2.71851660      -0.02138188       0.00000000
Si      -2.72849355       2.70200438      -0.06256941       0.00000000
Si      -0.00052128       2.70751040      -2.76035270       0.00000000
Si       2.71625976      -0.00629120      -2.75870794       0.00000000
