10
Lattice="16.28999089631971 0.0 0.0 0.0 16.28999089631971 0.0 0.0 0.0 34.26581377546328" Properties=species:S:1:pos:R:3:initial_magmoms:R:1 pbc="T T T"
Si      -2.15154152      -1.08361080       0.09018767       0.00000000
Si      -0.65909666       1.69412742      -1.66617613       0.00000000
Si       0.42976278       0.84020562       2.32637593       0.00000000
Si       2.05912116      -1.08732492      -1.34726402       0.00000000
Si       1.95980103      -0.97787241       2.46326793       0.00000000
Si      -1.52397935      -0.01352070      -3.08464455       0.00000000
Si      -2.21792327      -2.01486938      -1.98625327       0.00000000
Si      -3.47075459       0.66199302       0.89704524       0.00000000
Si       3.51935676      -1.21826557       0.68535092       0.00000000
Si      -2.55496337       2.79083538       0.70553350       0.00000000
