10
Lattice="16.28999089631971 0.0 0.0 0.0 16.28999089631971 0.0 0.0 0.0 34.26581377546328" Properties=species:S:1:pos:R:3:initial_magmoms:R:1 pbc="T T T"
Si      -0.99665478      -0.23720229      -2.10988440       0.00000000
Si      -2.02005774       0.58050262       1.09825421       0.00000000
Si       1.33361343      -2.01142764       0.14463608       0.00000000
Si       0.76743819       2.17818835       1.62659909       0.00000000
Si       2.60885979       0.54682142       1.70558183       0.00000000
Si       1.05557571       3.23176039      -0.83526394       0.00000000
Si      -3.12337944      -1.56798126       1.05977368       0.00000000
Si       2.34611838      -1.97164746      -2.00866313       0.00000000
Si      -1.14965046       1.38418443       3.24773419       0.00000000
Si      -3.12018660       2.00826736      -0.53183999       0.00000000
