10
Lattice="16.28999089631971 0.0 0.0 0.0 16.28999089631971 0.0 0.0 0.0 34.26581377546328" Properties=species:S:1:pos:R:3:initial_magmoms:R:1 pbc="T T T"
Si      -1.78515594      -0.93660984      -1.26314140       0.00000000
Si       1.75804938      -1.68453261       0.16824524       0.00000000
Si      -1.89791532       0.28839816       1.52938692       0.00000000
Si       0.95022828       1.89444555      -1.28531139       0.00000000
Si       1.89943029       0.84515778       1.49481270       0.00000000
Si      -0.23548824       1.96001280       1.94564826       0.00000000
Si      -0.41813172      -2.21736222      -2.63600200       0.00000000
Si       2.30687577       0.50909508      -2.62054810       0.00000000
Si       0.77744025      -3.52012239      -1.14646624       0.00000000
Si       2.65929363       2.73385296       0.17581799       0.00000000
