10
Lattice="16.28999089631971 0.0 0.0 0.0 16.28999089631971 0.0 0.0 0.0 34.26581377546328" Properties=species:S:1:pos:R:3:initial_magmoms:R:1 pbc="T T T"
Si      -1.35793440      -1.35602847      -1.35689272       0.00000000
Si       1.35640314       1.35878148      -1.35706405       0.00000000
Si       1.35757602      -1.35624024       1.35864028       0.00000000
Si      -1.35684297       1.35829278       1.35953119       0.00000000
Si      -0.00456120      -2.70848943       2.71296306       0.00000000
Si       2.71223613      -2.71264338       0.00010280       0.00000000
Si      -0.00140094      -2.71313208      -2.71402530       0.00000000
Si       2.71349046       0.00161271      -2.71381970       0.00000000
Si      -2.72841210       0.01094688       2.70076442       0.00000000
Si      -2.71606428      -2.71334385      -0.00037692       0.00000000
