10
Lattice="16.28999089631971 0.0 0.0 0.0 16.28999089631971 0.0 0.0 0.0 34.26581377546328" Properties=species:S:1:pos:R:3:initial_magmoms:R:1 pbc="T T T"
Si      -1.37156913      -1.34734590       1.34123323       0.00000000
Si       1.35684297      -1.35829278      -1.35953119       0.00000000
Si      -1.35961227       1.35780408      -1.35857174       0.00000000
Si       1.35918873       1.35614250       1.38800609       0.00000000
Si      -0.00436572      -2.68143174       2.68866858       0.00000000
Si      -2.74481613      -0.01241298       2.66588180       0.00000000
Si       2.71366965       2.71510317       0.00082238       0.00000000
Si       2.71441899      -2.71453302      -0.00089091       0.00000000
Si       2.71324611       0.00048870      -2.71659523       0.00000000
Si      -0.00109143      -2.71432125      -2.71642391       0.00000000
