10
Lattice="16.28999089631971 0.0 0.0 0.0 16.28999089631971 0.0 0.0 0.0 34.26581377546328" Properties=species:S:1:pos:R:3:initial_magmoms:R:1 pbc="T T T"
Si      -1.70906535      -0.83940741      -1.46112938       0.00000000
Si      -0.75986334      -1.88869518       1.31899471       0.00000000
Si       1.07365761       1.79838342      -1.34620178       0.00000000
Si       1.73265327      -1.81385892       0.22450974       0.00000000
Si      -1.96037118       1.31963661       1.21815036       0.00000000
Si      -2.89478187      -0.77384016       1.76983027       0.00000000
Si      -0.35241786      -2.22475788      -2.79636609       0.00000000
Si       2.37110724       0.47596122      -2.78149472       0.00000000
Si      -2.65929363      -2.73385296      -0.17581799       0.00000000
Si       0.97010208      -3.50191017      -1.29134218       0.00000000
