10
Lattice="16.28999089631971 0.0 0.0 0.0 16.28999089631971 0.0 0.0 0.0 34.26581377546328" Properties=species:S:1:pos:R:3:initial_magmoms:R:1 pbc="T T T"
Si       0.98065800      -2.04501402       0.65245572       0.00000000
Si      -2.16982800      -0.72687609      -0.58111426       0.00000000
Si      -0.33000282       1.63631421       1.70558183       0.00000000
Si       0.32283522       0.59619771      -2.32109899       0.00000000
Si       0.70385832      -2.85228126      -1.72463364       0.00000000
Si      -2.10675312       2.78795205       0.68675582       0.00000000
Si      -3.58005330       1.02060108       0.09142124       0.00000000
Si       2.54498670       1.23266430      -2.63038240       0.00000000
Si      -0.01643661      -2.91090897       2.67914268       0.00000000
Si       3.15105615      -1.75470993       1.65085930       0.00000000
