10
Lattice="16.28999089631971 0.0 0.0 0.0 16.28999089631971 0.0 0.0 0.0 34.26581377546328" Properties=species:S:1:pos:R:3:initial_magmoms:R:1 pbc="T T T"
Si       1.35742941       1.35681039       1.35682419       0.00000000
Si       1.35746199      -1.35819504      -1.35785216       0.00000000
Si      -1.35811359       1.35780408      -1.35768083       0.00000000
Si      -1.35799956      -1.35799956       1.35774936       0.00000000
Si      -2.71406061      -0.00034209      -2.71508754       0.00000000
Si      -2.71495656       2.71489261      -0.00037692       0.00000000
Si       2.71521720       2.71479781      -0.00013706       0.00000000
Si       2.71485882      -2.71531494      -0.00027413       0.00000000
Si      -2.71524978      -2.71508688      -0.00034266       0.00000000
Si       2.71524978      -0.00079821      -2.71519034       0.00000000
