10
Lattice="16.28999089631971 0.0 0.0 0.0 16.28999089631971 0.0 0.0 0.0 34.26581377546328" Properties=species:S:1:pos:R:3:initial_magmoms:R:1 pbc="T T T"
Si       1.35762489      -1.35702216      -1.36100462       0.00000000
Si      -1.35785295       1.35751086      -1.36031930       0.00000000
Si       1.35091341       1.36112724       1.37834313       0.00000000
Si      -1.35448092      -1.35896067       1.38718371       0.00000000
Si       2.71269225      -2.71479366      -0.00212448       0.00000000
Si      -2.71366965      -2.71510317      -0.00082238       0.00000000
Si      -2.71503801       2.71397175       0.00260420       0.00000000
Si       2.71800279       2.71262709       0.00003427       0.00000000
Si      -0.00042354      -2.71461447      -2.71741761       0.00000000
Si      -2.71528236       0.00070047      -2.71714349       0.00000000
