10
Lattice="16.28999089631971 0.0 0.0 0.0 16.28999089631971 0.0 0.0 0.0 34.26581377546328" Properties=species:S:1:pos:R:3:initial_magmoms:R:1 pbc="T T T"
Si       0.49102947      -0.65808342       2.16775939       0.00000000
Si       1.04205501      -0.89648757      -1.94640211       0.00000000
Si      -0.98728803       2.17890709       0.00579093       0.00000000
Si      -1.10297961      -2.75657751       0.55294775       0.00000000
Si      -1.77388326      -1.42547274       2.33960254       0.00000000
Si       2.67455736      -2.48033169      -0.80572680       0.00000000
Si       0.51950439       1.14043588       3.65671263       0.00000000
Si       2.46567069      -2.05905600       2.23519455       0.00000000
Si      -2.44752363       2.30984774      -2.02682402       0.00000000
Si      -2.54684376       2.41930025       1.78370793       0.00000000
