10
Lattice="16.28999089631971 0.0 0.0 0.0 16.28999089631971 0.0 0.0 0.0 34.26581377546328" Properties=species:S:1:pos:R:3:initial_magmoms:R:1 pbc="T T T"
Si      -2.18675331       0.72286875       0.33059676       0.00000000
Si       1.03755897       1.72195074       1.20142863       0.00000000
Si       0.63205200      -2.16222776       0.71437408       0.00000000
Si       0.76071042       0.13061322      -2.27391494       0.00000000
Si      -1.13575509      -3.28987043      -0.38435985       0.00000000
Si       0.70983675       3.53144394      -0.28149382       0.00000000
Si       1.53430623       2.39875137      -2.22676515       0.00000000
Si       2.79481014      -2.37912911      -0.25956368       0.00000000
Si       3.33202176       1.40877549       0.91102570       0.00000000
Si       2.60472213      -1.39110247      -2.41330835       0.00000000
