10
Lattice="16.28999089631971 0.0 0.0 0.0 16.28999089631971 0.0 0.0 0.0 34.26581377546328" Properties=species:S:1:pos:R:3:initial_magmoms:R:1 pbc="T T T"
Si       1.35482301      -1.35566481       1.35798922       0.00000000
Si      -1.36098063       1.35873424       1.35617314       0.00000000
Si       1.36233270       1.35210421      -1.36331414       0.00000000
Si      -1.35814617      -1.37301210      -1.37644823       0.00000000
Si      -2.57792508       0.06459474      -2.79135986       0.00000000
Si       2.70839169      -2.71453858      -0.00143916       0.00000000
Si       2.71062342       0.00098717       2.71549873       0.00000000
Si       2.70932022       2.71718992       0.00215875       0.00000000
Si      -0.00346977      -2.71330054       2.71477915       0.00000000
Si      -0.00327429       2.71552834       2.71477915       0.00000000
