10
Lattice="16.28999089631971 0.0 0.0 0.0 16.28999089631971 0.0 0.0 0.0 34.26581377546328" Properties=species:S:1:pos:R:3:initial_magmoms:R:1 pbc="T T T"
Si       1.35738054      -1.35661906      -1.35774936       0.00000000
Si      -1.35778779      -1.35798742       1.35696125       0.00000000
Si      -1.35736425       1.35760024      -1.35788643       0.00000000
Si       1.35842310       1.35785436       1.35829762       0.00000000
Si       2.71476108       2.71491073      -0.00010280       0.00000000
Si      -2.71521720      -2.71479781       0.00013706       0.00000000
Si       2.71567332       0.00101667      -2.71453928       0.00000000
Si       2.71531494      -2.71531909      -0.00017133       0.00000000
Si       0.00003258      -2.71559602      -2.71505327       0.00000000
Si      -2.71542897       0.00061570      -2.71525887       0.00000000
