10
Lattice="16.28999089631971 0.0 0.0 0.0 16.28999089631971 0.0 0.0 0.0 34.26581377546328" Properties=species:S:1:pos:R:3:initial_magmoms:R:1 pbc="T T T"
Si       1.06862400      -1.55522259       1.49340780       0.00000000
Si      -0.25399368      -1.04060194      -2.17180276       0.00000000
Si       1.66899195       1.74649977      -0.21337334       0.00000000
Si      -1.93707648       1.41635034       1.05329744       0.00000000
Si       0.06344955      -0.64371727       3.41931894       0.00000000
Si       1.77487695       2.21395761      -2.47800224       0.00000000
Si       0.23646564       0.79532667      -3.67727213       0.00000000
Si      -2.13382710       0.20763234       3.17541474       0.00000000
Si      -0.09060498      -3.73336568       0.88388716       0.00000000
Si       1.31546637       3.50427222       1.36268364       0.00000000
