10
Lattice="16.28999089631971 0.0 0.0 0.0 16.28999089631971 0.0 0.0 0.0 34.26581377546328" Properties=species:S:1:pos:R:3:initial_magmoms:R:1 pbc="T T T"
Si       1.00517445      -0.91150532      -1.92591114       0.00000000
Si       0.59838057      -1.44202894       1.77287993       0.00000000
Si      -2.19727665       0.85134961      -0.24390420       0.00000000
Si       0.50699367       2.11823920       0.93950061       0.00000000
Si      -0.06344955       0.64371727      -3.41931894       0.00000000
Si       0.64299888       1.61987923       3.25477441       0.00000000
Si       3.35920977      -0.78110224      -1.33057656       0.00000000
Si      -2.00052603       2.06006761      -2.36602150       0.00000000
Si      -0.21975210      -0.50127425       3.72438765       0.00000000
Si       2.25750078       3.09822931      -0.18561802       0.00000000
