10
Lattice="16.28999089631971 0.0 0.0 0.0 16.28999089631971 0.0 0.0 0.0 34.26581377546328" Properties=species:S:1:pos:R:3:initial_magmoms:R:1 pbc="T T T"
Si       1.97359866       1.39672089       0.34121916       0.00000000
Si      -1.98842256       1.53290529       0.55483237       0.00000000
Si       0.63732996      -1.12417290      -2.23077426       0.00000000
Si      -0.28813752      -1.05357204       2.46186303       0.00000000
Si      -1.05557571      -3.23176039       0.83526394       0.00000000
Si      -3.54305871       0.72268956      -0.96119088       0.00000000
Si      -1.45419201      -1.90699699      -2.91962029       0.00000000
Si       2.41619796       1.42236135       2.72050154       0.00000000
Si      -0.84603744       1.60788816      -3.47010090       0.00000000
Si       1.35205371       0.65438559      -3.68241200       0.00000000
