10
Lattice="16.28999089631971 0.0 0.0 0.0 16.28999089631971 0.0 0.0 0.0 34.26581377546328" Properties=species:S:1:pos:R:3:initial_magmoms:R:1 pbc="T T T"
Si      -0.22444362       1.75339044       1.45581818       0.00000000
Si       2.11913352      -0.78017697      -0.60513461       0.00000000
Si      -1.15797465      -1.72630017       1.12470743       0.00000000
Si      -1.06973172       0.70134966      -2.04217511       0.00000000
Si      -0.40685904      -3.41127261      -0.29355539       0.00000000
Si       1.86165378      -2.99398797       0.05366029       0.00000000
Si       2.21249151      -0.05748741      -2.78701152       0.00000000
Si      -2.41090371       2.54285271       0.72030207       0.00000000
Si       0.78102405       1.76640615      -3.13700274       0.00000000
Si       0.96420510       3.55017744       0.59286744       0.00000000
