10
Lattice="16.28999089631971 0.0 0.0 0.0 16.28999089631971 0.0 0.0 0.0 34.26581377546328" Properties=species:S:1:pos:R:3:initial_magmoms:R:1 pbc="T T T"
Si       1.35708732      -1.35716877      -1.35675565       0.00000000
Si       1.35804843       1.35759231       1.35641300       0.00000000
Si      -1.35739683       1.35711990      -1.35757803       0.00000000
Si      -1.35640314      -1.35878148       1.35706405       0.00000000
Si       2.71311579      -0.00017919       2.71529313       0.00000000
Si      -0.00074934      -2.71406061      -2.71447075       0.00000000
Si      -2.71433754      -2.71480995       0.00017133       0.00000000
Si       2.71458189       0.00140094      -2.71481341       0.00000000
Si       2.71498914      -2.71441899       0.00058252       0.00000000
Si       0.00039096       2.71451673      -2.71491621       0.00000000
