10
Lattice="16.28999089631971 0.0 0.0 0.0 16.28999089631971 0.0 0.0 0.0 34.26581377546328" Properties=species:S:1:pos:R:3:initial_magmoms:R:1 pbc="T T T"
Si       1.61497431      -1.48388868       1.04757504       0.00000000
Si       0.28937556       2.34242055       0.62315844       0.00000000
Si      -2.08075428      -0.60129648       1.15184597       0.00000000
Si      -0.15850170      -0.45954090      -2.67561330       0.00000000
Si      -3.46840164       1.18623780       0.29866100       0.00000000
Si       3.60939159      -1.27614231      -0.23218528       0.00000000
Si      -1.85678307       1.38504096      -3.09046974       0.00000000
Si      -1.88449236       0.02129103       3.50357862       0.00000000
Si       0.55653156      -2.45878002       3.11921877       0.00000000
Si       1.02244185       2.69491986       2.88607404       0.00000000
