10
Lattice="16.28999089631971 0.0 0.0 0.0 16.28999089631971 0.0 0.0 0.0 34.26581377546328" Properties=species:S:1:pos:R:3:initial_magmoms:R:1 pbc="T T T"
Si       1.60941942      -1.07298972       1.23908678       0.00000000
Si      -2.24797113      -0.64975923       0.08655549       0.00000000
Si       0.52180128      -0.08254143      -2.29742130       0.00000000
Si       0.12709458       2.32661925       0.51724275       0.00000000
Si       3.31960878       0.20927763       0.19027817       0.00000000
Si      -2.75876037       0.86439627      -1.72593574       0.00000000
Si      -0.81842589       1.75754439      -2.82871304       0.00000000
Si       2.79347436       0.48725019      -2.15956985       0.00000000
Si       0.92439234      -0.61634844       3.42713155       0.00000000
Si      -2.03721111       2.86646985       1.20180556       0.00000000
