10
Lattice="16.28999089631971 0.0 0.0 0.0 16.28999089631971 0.0 0.0 0.0 34.26581377546328" Properties=species:S:1:pos:R:3:initial_magmoms:R:1 pbc="T T T"
Si       1.28550906      -1.36995642      -1.38176971       0.00000000
Si      -0.93915108      -1.75399317       1.32207863       0.00000000
Si      -1.43907489       1.34524449      -1.35411719       0.00000000
Si       1.14046290       1.57600863       1.42525305       0.00000000
Si      -2.11844934      -0.37729269       2.88812999       0.00000000
Si       2.43809172      -2.70334179       0.16355082       0.00000000
Si       2.64165156      -0.01703934      -2.73664075       0.00000000
Si      -2.63891484       2.76240023       0.22814192       0.00000000
Si      -0.07198551       2.69674434      -2.73242605       0.00000000
Si       2.74385502       2.69882946       0.01069094       0.00000000
