10
Lattice="16.28999089631971 0.0 0.0 0.0 16.28999089631971 0.0 0.0 0.0 34.26581377546328" Properties=species:S:1:pos:R:3:initial_magmoms:R:1 pbc="T T T"
Si      -0.81813267       0.94075469       1.95150772       0.00000000
Si      -0.04836501      -2.35672317      -0.04314068       0.00000000
Si      -0.59838057       1.44202894      -1.77287993       0.00000000
Si       2.32103178      -0.04044807       0.55085753       0.00000000
Si       0.04461831       3.06190817       1.48189448       0.00000000
Si       0.68286051      -2.57108328       2.25359530       0.00000000
Si       3.04478019      -0.97293654      -1.46856507       0.00000000
Si      -0.08876421      -0.68460354       3.52520036       0.00000000
Si      -0.09138690       3.56026814      -0.83337932       0.00000000
Si       1.69841169      -2.89670409      -1.59469760       0.00000000
