10
Lattice="16.28999089631971 0.0 0.0 0.0 16.28999089631971 0.0 0.0 0.0 34.26581377546328" Properties=species:S:1:pos:R:3:initial_magmoms:R:1 pbc="T T T"
Si      -1.35742941      -1.34501643      -1.35432278       0.00000000
Si      -1.19514843       1.41165882       1.43871953       0.00000000
Si       1.47201948      -1.27335672       1.31155902       0.00000000
Si       1.36045935       1.36713825      -1.35134165       0.00000000
Si       0.62175672       2.10784455       2.79441294       0.00000000
Si       2.33690217       0.43429140       2.73002744       0.00000000
Si      -2.63963160      -0.00775404       2.60502568       0.00000000
Si      -2.70423774      -2.69592007       0.01750984       0.00000000
Si       0.00260640      -2.70175351      -2.71145536       0.00000000
Si      -2.71080261       0.01110978      -2.71080431       0.00000000
