10
Lattice="16.28999089631971 0.0 0.0 0.0 16.28999089631971 0.0 0.0 0.0 34.26581377546328" Properties=species:S:1:pos:R:3:initial_magmoms:R:1 pbc="T T T"
Si      -0.35049564       0.72894492       2.30417167       0.00000000
Si      -1.65586221      -1.80819977       0.07983939       0.00000000
Si      -0.48690810       2.03217750      -1.31279259       0.00000000
Si       1.93639230      -0.31744323      -2.60057112       0.00000000
Si      -2.60468955       2.42693307      -0.01308955       0.00000000
Si       1.47675366       3.18664980      -0.59403248       0.00000000
Si      -0.09332541      -3.57465221       0.23571466       0.00000000
Si      -2.53474029      -1.96384258      -2.09491023       0.00000000
Si      -2.16209025       2.45257353       2.36619283       0.00000000
Si      -1.38427533      -0.76590856       3.74417415       0.00000000
