10
Lattice="16.28999089631971 0.0 0.0 0.0 16.28999089631971 0.0 0.0 0.0 34.26581377546328" Properties=species:S:1:pos:R:3:initial_magmoms:R:1 pbc="T T T"
Si       1.35337320      -1.35612621       1.35648153       0.00000000
Si       1.35635427       1.35861858      -1.35757803       0.00000000
Si      -1.35883035      -1.35663120      -1.35713258       0.00000000
Si      -1.35638685       1.35723393       1.36525358       0.00000000
Si       2.71080261      -0.01110978       2.71080431       0.00000000
Si       2.71340901      -2.71286329      -0.00065105       0.00000000
Si       2.71339272       0.00156384      -2.71429942       0.00000000
Si      -0.00211770      -2.71387328      -2.71405956       0.00000000
Si      -2.71516833      -2.71368757       0.00126784       0.00000000
Si       2.71360449       2.71656927       0.00102797       0.00000000
