10
Lattice="16.28999089631971 0.0 0.0 0.0 16.28999089631971 0.0 0.0 0.0 34.26581377546328" Properties=species:S:1:pos:R:3:initial_magmoms:R:1 pbc="T T T"
Si      -0.36492858       0.51337935      -2.28025412       0.00000000
Si       0.45359505      -2.30643594       0.51011545       0.00000000
Si      -1.82478951       0.47975679       1.50557217       0.00000000
Si       1.57467841       1.65882699       0.93442926       0.00000000
Si       0.55340388       3.47744259      -0.06712677       0.00000000
Si      -0.37954071       2.85272109      -2.15052367       0.00000000
Si      -0.69383997      -0.08382834       3.53013464       0.00000000
Si       1.83122147       0.06009381      -3.22287292       0.00000000
Si      -1.51006671      -3.46090824      -0.20864466       0.00000000
Si      -2.47531437      -0.56379690      -2.89501743       0.00000000
