10
Lattice="16.28999089631971 0.0 0.0 0.0 16.28999089631971 0.0 0.0 0.0 34.26581377546328" Properties=species:S:1:pos:R:3:initial_magmoms:R:1 pbc="T T T"
Si      -1.35334062       1.35558864      -1.36216966       0.00000000
Si       1.36039419      -1.35971001      -1.36059343       0.00000000
Si       1.34807895       1.34933328       1.39441381       0.00000000
Si      -1.35552348      -1.34799750       1.39712081       0.00000000
Si      -2.71404432       2.71187775      -0.00349511       0.00000000
Si      -2.70959715      -2.71904535       0.00363218       0.00000000
Si      -2.71217097      -0.00236205      -2.71820573       0.00000000
Si       0.00239463       2.71290402      -2.71854839       0.00000000
Si       2.71821456       2.71425609       0.00126784       0.00000000
Si       2.71779713      -0.00286704      -2.71895958       0.00000000
