10
Lattice="16.28999089631971 0.0 0.0 0.0 16.28999089631971 0.0 0.0 0.0 34.26581377546328" Properties=species:S:1:pos:R:3:initial_magmoms:R:1 pbc="T T T"
Si      -1.34807895      -1.34933328      -1.39441381       0.00000000
Si       1.37013561       1.36492281      -1.39314597       0.00000000
Si       1.41042536      -1.43097876       1.43251741       0.00000000
Si      -1.54673550       1.38987909       1.50022670       0.00000000
Si       2.64080515       0.12279402       2.73431067       0.00000000
Si      -2.70360243      -2.69733078       0.00270700       0.00000000
Si      -2.69931816       2.72326446      -0.04509384       0.00000000
Si       2.70926876       2.73388554      -0.02395182       0.00000000
Si       2.74292553      -2.71077003      -0.03615045       0.00000000
Si      -2.70141957       0.00625536      -2.75658346       0.00000000
