10
Lattice="16.28999089631971 0.0 0.0 0.0 16.28999089631971 0.0 0.0 0.0 34.26581377546328" Properties=species:S:1:pos:R:3:initial_magmoms:R:1 pbc="T T T"
Si      -1.99441728      -0.20774637       1.27976033       0.00000000
Si       0.55587996       1.82879685      -1.50207705       0.00000000
Si      -0.13906773       0.68867604       2.55797869       0.00000000
Si       1.37109576      -1.15427682       2.47289663       0.00000000
Si      -1.74736314      -2.46026241       0.60191362       0.00000000
Si       2.09860879       0.44474958      -2.78272829       0.00000000
Si      -0.09164754      -3.58376742      -0.46053279       0.00000000
Si       1.06200116       2.77094529       2.13003271       0.00000000
Si      -3.60939159       1.27614231       0.23218528       0.00000000
Si       1.83906348       3.39131736      -0.12167797       0.00000000
