10
Lattice="16.28999089631971 0.0 0.0 0.0 16.28999089631971 0.0 0.0 0.0 34.26581377546328" Properties=species:S:1:pos:R:3:initial_magmoms:R:1 pbc="T T T"
Si      -0.63042300      -1.24986654       1.80591219       0.00000000
Si       0.35174997       2.26947393       0.16584663       0.00000000
Si      -1.67857047       0.03344337      -1.59329270       0.00000000
Si       2.22212934      -0.63594531      -0.26199656       0.00000000
Si      -0.25207146      -1.25579610      -2.96608476       0.00000000
Si       0.03694572       0.30735972       3.49453244       0.00000000
Si       3.13400771       0.57207222       1.57842133       0.00000000
Si       0.67202766       2.86588341      -2.08929063       0.00000000
Si       0.94899743       0.82647315      -3.39403075       0.00000000
Si      -2.98268271      -1.34333856       1.55721078       0.00000000
