10
Lattice="16.28999089631971 0.0 0.0 0.0 16.28999089631971 0.0 0.0 0.0 34.26581377546328" Properties=species:S:1:pos:R:3:initial_magmoms:R:1 pbc="T T T"
Si       1.26087858      -1.37868786      -1.38834875       0.00000000
Si       2.02856112       0.78651282       1.01735258       0.00000000
Si      -1.60339212      -1.12282083       1.41456211       0.00000000
Si      -1.45375218       1.36529815      -1.37508788       0.00000000
Si       2.50085709      -2.72689713       0.16032983       0.00000000
Si       2.60868349       0.00271556      -2.74568693       0.00000000
Si      -3.41801667       0.79890462       1.51862745       0.00000000
Si      -2.74385502      -2.69882946      -0.01069094       0.00000000
Si      -0.10220346      -2.71586880      -2.74733169       0.00000000
Si      -0.10694385       2.71620179      -2.74692050       0.00000000
