10
Lattice="16.28999089631971 0.0 0.0 0.0 16.28999089631971 0.0 0.0 0.0 34.26581377546328" Properties=species:S:1:pos:R:3:initial_magmoms:R:1 pbc="T T T"
Si       2.02561263      -1.08447417       0.19038097       0.00000000
Si      -0.28395099       1.63386324      -1.63489142       0.00000000
Si      -0.72374841       0.93248847       2.01942260       0.00000000
Si      -1.34636850      -1.92376755      -0.12613253       0.00000000
Si       1.70533494      -1.68088365       2.44551823       0.00000000
Si      -3.04478019       0.97293654       1.46856507       0.00000000
Si       0.93278169       0.72550773      -3.39115242       0.00000000
Si       3.54256742       0.76685175       0.27669660       0.00000000
Si      -0.18841014      -0.83166966       3.54130530       0.00000000
Si      -3.09314520      -1.38378663       1.42542438       0.00000000
