10
Lattice="16.28999089631971 0.0 0.0 0.0 16.28999089631971 0.0 0.0 0.0 34.26581377546328" Properties=species:S:1:pos:R:3:initial_magmoms:R:1 pbc="T T T"
Si       1.41338556       1.76572264       0.55308481       0.00000000
Si       0.72374841      -0.93248847      -2.01942260       0.00000000
Si      -2.32103178       0.04044807      -0.55085753       0.00000000
Si       0.53533827      -1.76415813       1.52188270       0.00000000
Si      -2.36939679      -2.31627510      -0.59399821       0.00000000
Si      -1.63817127      -2.53063521       1.70273777       0.00000000
Si      -3.13916445       0.98120276       1.40065019       0.00000000
Si       2.42908335      -2.61337212       0.42609563       0.00000000
Si      -0.62262009      -2.85625602      -2.14555513       0.00000000
Si       2.37454443       1.12850671       2.63658451       0.00000000
