10
Lattice="16.28999089631971 0.0 0.0 0.0 16.28999089631971 0.0 0.0 0.0 34.26581377546328" Properties=species:S:1:pos:R:3:initial_magmoms:R:1 pbc="T T T"
Si      -0.35174997      -2.26947393      -0.16584663       0.00000000
Si       1.98081091       0.50880186       1.12888787       0.00000000
Si      -1.89374508       0.84921399       1.09578707       0.00000000
Si       0.32027769       0.59640948      -2.25513726       0.00000000
Si      -0.91349433       0.35634375       3.22424355       0.00000000
Si      -1.70533494       1.68088365      -2.44551823       0.00000000
Si       0.96228029       1.74153132       2.84190539       0.00000000
Si       1.87037937      -2.90541924      -0.42784319       0.00000000
Si      -2.03032044      -2.23603056      -1.75913933       0.00000000
Si       2.78225774      -1.69740171       1.41257470       0.00000000
