10
Lattice="16.28999089631971 0.0 0.0 0.0 16.28999089631971 0.0 0.0 0.0 34.26581377546328" Properties=species:S:1:pos:R:3:initial_magmoms:R:1 pbc="T T T"
Si      -1.31802390       1.76233365      -0.82693735       0.00000000
Si       1.44871857       0.47301273       1.79816811       0.00000000
Si      -1.51552386      -1.33403697       1.22270772       0.00000000
Si       1.15756740      -0.63293166      -1.96648189       0.00000000
Si      -0.23765481       0.57555828       3.39821118       0.00000000
Si       0.43046325       3.31568682      -1.31292965       0.00000000
Si      -1.75019760      -3.13483131      -0.25887837       0.00000000
Si      -2.67906969       2.18636791       1.06758629       0.00000000
Si      -3.43207494      -0.02298519       1.63478862       0.00000000
Si       0.49928850      -3.79397358      -0.09217509       0.00000000
