10
Lattice="16.28999089631971 0.0 0.0 0.0 16.28999089631971 0.0 0.0 0.0 34.26581377546328" Properties=species:S:1:pos:R:3:initial_magmoms:R:1 pbc="T T T"
Si       0.13881133      -0.18932238       2.34487948       0.00000000
Si       1.97247237       0.38449287      -1.25858404       0.00000000
Si      -0.51203675      -2.16901350      -0.81693172       0.00000000
Si      -1.48235060       1.88866260      -0.04125606       0.00000000
Si       1.37020175       2.50258383      -2.10916481       0.00000000
Si       0.94147664      -2.35942731       2.57106824       0.00000000
Si      -0.27628787      -3.58521723       1.02495959       0.00000000
Si      -0.85192760       3.13852914      -1.84716826       0.00000000
Si       2.02738596       1.17670815       2.97615892       0.00000000
Si      -2.05733873       0.26396316       3.28749828       0.00000000
