10
Lattice="16.28999089631971 0.0 0.0 0.0 16.28999089631971 0.0 0.0 0.0 34.26581377546328" Properties=species:S:1:pos:R:3:initial_magmoms:R:1 pbc="T T T"
Si       1.34742083      -1.38406356       1.29322680       0.00000000
Si      -1.33913315      -1.36896273      -1.36919415       0.00000000
Si       1.37167664       1.34601012      -1.37035919       0.00000000
Si      -1.44938387       1.33126767       1.53164847       0.00000000
Si      -2.68936238       2.67947694      -0.01703012       0.00000000
Si      -0.06846361      -2.61109152       2.75826249       0.00000000
Si       2.74155161      -0.15473871       2.66341466       0.00000000
Si      -2.69791463      -0.01260846      -2.73239178       0.00000000
Si       0.01884264       2.70255987      -2.73153514       0.00000000
Si       2.72066783      -2.71899648      -0.03142177       0.00000000
