10
Lattice="16.28999089631971 0.0 0.0 0.0 16.28999089631971 0.0 0.0 0.0 34.26581377546328" Properties=species:S:1:pos:R:3:initial_magmoms:R:1 pbc="T T T"
Si      -1.23037979      -1.55377278      -1.30179326       0.00000000
Si       1.41588445       1.22702796      -1.46503569       0.00000000
Si      -1.54272883       1.38404727       1.28065124       0.00000000
Si      -2.09860879      -0.44474958       2.78272829       0.00000000
Si       1.30819126      -3.04803819       1.37244941       0.00000000
Si       1.90308577       2.27804247       2.02267785       0.00000000
Si       2.97061834      -1.37642355       1.78871074       0.00000000
Si       2.81001523       2.45635281      -0.09484783       0.00000000
Si       0.06846361       2.61109152      -2.75826249       0.00000000
Si      -2.64080515      -0.12279402      -2.73431067       0.00000000
