10
Lattice="16.28999089631971 0.0 0.0 0.0 16.28999089631971 0.0 0.0 0.0 34.26581377546328" Properties=species:S:1:pos:R:3:initial_magmoms:R:1 pbc="T T T"
Si      -1.34475043      -1.33871220       1.38004614       0.00000000
Si       1.36886287       1.37518551       1.37679089       0.00000000
Si      -1.31282203       1.32160770      -1.52008032       0.00000000
Si       1.21902908      -1.55251845      -1.41198532       0.00000000
Si       1.99234470       0.29377386      -2.69301147       0.00000000
Si       0.57145434       2.23238160      -2.79378729       0.00000000
Si      -2.69028814      -2.70127296      -0.00794282       0.00000000
Si      -2.69343211       2.72647359      -0.01111241       0.00000000
Si       0.00924777      -2.69750997       2.73700739       0.00000000
Si      -2.70454189       0.01690902       2.73642487       0.00000000
