10
Lattice="16.28999089631971 0.0 0.0 0.0 16.28999089631971 0.0 0.0 0.0 34.26581377546328" Properties=species:S:1:pos:R:3:initial_magmoms:R:1 pbc="T T T"
Si      -1.35283400       1.35654975      -1.36117595       0.00000000
Si       1.36094805      -1.35985662      -1.36086755       0.00000000
Si      -1.37167664      -1.34601012       1.37035919       0.00000000
Si       1.37769417       1.35068535       1.38519630       0.00000000
Si      -0.02425581      -2.73007368       2.66358599       0.00000000
Si      -2.71080980      -2.71497285       0.00116504       0.00000000
Si      -2.71323412       2.71487024      -0.00400910       0.00000000
Si      -2.71113700      -0.00185706      -2.71871972       0.00000000
Si       2.71919196       2.71141422       0.00113077       0.00000000
Si       0.00399105       2.71303555      -2.71899384       0.00000000
