10
Lattice="16.28999089631971 0.0 0.0 0.0 16.28999089631971 0.0 0.0 0.0 34.26581377546328" Properties=species:S:1:pos:R:3:initial_magmoms:R:1 pbc="T T T"
Si       1.44700160      -0.90179811       1.67806637       0.00000000
Si      -1.51695479      -1.85132592      -0.08631563       0.00000000
Si       1.16717198       0.08811261      -2.09059273       0.00000000
Si      -1.00306815       2.06508071       0.80195755       0.00000000
Si       2.25847166      -2.64401361       0.32689605       0.00000000
Si      -3.54256742      -0.76685175      -0.27669660       0.00000000
Si       2.89409117      -1.56893877      -1.66799222       0.00000000
Si      -1.83723248      -2.44773540       2.16882163       0.00000000
Si       2.12113067       2.27583422      -2.22388682       0.00000000
Si       0.14357843      -1.93893354       3.29770949       0.00000000
