10
Lattice="16.28999089631971 0.0 0.0 0.0 16.28999089631971 0.0 0.0 0.0 34.26581377546328" Properties=species:S:1:pos:R:3:initial_magmoms:R:1 pbc="T T T"
Si      -2.21692795       0.82684782       0.10379121       0.00000000
Si      -0.07006492      -2.40217227       0.12887380       0.00000000
Si       1.56002977       0.95630445       1.68104750       0.00000000
Si       0.00362127       0.35126127      -2.50904708       0.00000000
Si      -1.59735409       3.03828767      -0.82532685       0.00000000
Si       2.09256616      -3.07069758      -0.50949867       0.00000000
Si       0.39285779       0.86819184       3.77164023       0.00000000
Si      -0.84712724      -3.02254434       2.38058448       0.00000000
Si      -1.66373584       2.10702909      -2.90176780       0.00000000
Si       3.28694896      -0.70074693       2.10364801       0.00000000
