10
Lattice="10.86 0.0 0.0 0.0 10.86 0.0 0.0 0.0 10.86" Properties=species:S:1:pos:R:3:initial_magmoms:R:1 pbc="T T T"
Si       1.20013860      -1.36978266      -1.46800050       0.00000000
Si      -1.51486140      -1.36978266       1.24699950       0.00000000
Si       1.40824878       1.30582812       1.48282440       0.00000000
Si      -1.51486140       1.34521734      -1.46800050       0.00000000
Si       2.55763860      -2.72728266      -0.11050050       0.00000000
Si      -0.15736140      -2.72728266       2.60449950       0.00000000
Si       2.63394096      -0.04878312       2.75776668       0.00000000
Si       2.64481182       0.08319846      -2.79294222       0.00000000
Si      -2.87236140      -0.01228266       2.60449950       0.00000000
Si      -0.15736140      -2.72728266      -2.82550050       0.00000000
