10
Lattice="10.86 0.0 0.0 0.0 10.86 0.0 0.0 0.0 10.86" Properties=species:S:1:pos:R:3:initial_magmoms:R:1 pbc="T T T"
Si       1.46133246      -1.18370742      -1.28907114       0.00000000
Si      -1.25366754       1.53129258      -1.28907114       0.00000000
Si      -1.01956938      -1.44807240       1.59438918       0.00000000
Si       1.46133246       1.53129258       1.42592886       0.00000000
Si      -2.38737552      -2.32153134       0.12771360       0.00000000
Si      -2.61203634      -0.04741476       2.55799698       0.00000000
Si       0.10383246      -2.54120742      -2.64657114       0.00000000
Si      -2.61116754       0.17379258      -2.64657114       0.00000000
Si       2.77458882      -2.63159520       0.40045164       0.00000000
Si       2.81883246       0.17379258      -2.64657114       0.00000000
