10
Lattice="16.28999089631971 0.0 0.0 0.0 16.28999089631971 0.0 0.0 0.0 34.53561885213415" Properties=species:S:1:pos:R:3:initial_magmoms:R:1 pbc="T T T"
Si      -1.79812278      -0.61210652      -1.35595001       0.00000000
Si       1.45404540      -1.23119766       1.36686875       0.00000000
Si       1.80594198       0.93717347      -1.20564327       0.00000000
Si      -1.27531152       1.50214325       1.36693092       0.00000000
Si      -2.64398103      -2.45465606      -0.03562351       0.00000000
Si       0.08814519      -2.58313529       2.74444701       0.00000000
Si      -2.63177982       0.14151123       2.74693358       0.00000000
Si       2.89321803      -2.47773899      -0.25290102       0.00000000
Si       2.74841622       2.70455702       0.10525426       0.00000000
Si      -2.64271041       2.80734692      -0.16544643       0.00000000
