10
Lattice="16.28999089631971 0.0 0.0 0.0 16.28999089631971 0.0 0.0 0.0 34.53561885213415" Properties=species:S:1:pos:R:3:initial_magmoms:R:1 pbc="T T T"
Si       0.32645160      -0.67429360      -2.24281341       0.00000000
Si      -2.14286805       1.02743962      -0.21246325       0.00000000
Si      -0.37307358      -1.30919537       1.96967105       0.00000000
Si       1.80452475       1.41059671       1.03005994       0.00000000
Si      -1.84894758       2.35570993       1.78815174       0.00000000
Si       0.38628477       2.44782988       2.56914066       0.00000000
Si      -3.46462236      -1.06381682       0.09407508       0.00000000
Si      -2.75358667      -1.22676080       2.30656620       0.00000000
Si       0.46758816      -3.51788481       1.70008586       0.00000000
Si       2.13759009      -2.46120138      -2.21891475       0.00000000
