10
Lattice="16.28999089631971 0.0 0.0 0.0 16.28999089631971 0.0 0.0 0.0 34.53561885213415" Properties=species:S:1:pos:R:3:initial_magmoms:R:1 pbc="T T T"
Si      -0.68576013       1.87761635       1.21582714       0.00000000
Si      -1.05958305      -1.85848605       0.97497560       0.00000000
Si       2.34934380      -0.16810466       0.04455097       0.00000000
Si      -0.75482973       0.10751563      -2.26619404       0.00000000
Si       0.75034998      -1.56559185      -2.89950857       0.00000000
Si       2.83955877       2.06599391       0.40731332       0.00000000
Si       1.35798327       2.41145594       2.23013883       0.00000000
Si      -1.30784265       3.26633885      -0.54835686       0.00000000
Si      -3.06010908      -0.88183539       1.60911899       0.00000000
Si       2.80973178      -0.71699688      -2.14860019       0.00000000
