10
Lattice="16.28999089631971 0.0 0.0 0.0 16.28999089631971 0.0 0.0 0.0 34.53561885213415" Properties=species:S:1:pos:R:3:initial_magmoms:R:1 pbc="T T T"
Si      -0.76123170      -2.18839860      -0.01674978       0.00000000
Si       2.21428341       0.22213044      -0.76054382       0.00000000
Si       0.11411145       0.98648982       2.15077594       0.00000000
Si      -0.92844855       1.56548529      -1.59368156       0.00000000
Si       1.09191870       2.91375972       1.25543952       0.00000000
Si      -0.87628797       3.35034801      -0.04745197       0.00000000
Si      -2.50020549      -1.99946718      -1.53514365       0.00000000
Si       2.07027981      -0.15879492      -3.08047532       0.00000000
Si       2.92552110       2.45074905      -0.10429763       0.00000000
Si      -1.87392015      -2.78914122       1.97436790       0.00000000
