10
Lattice="16.28999089631971 0.0 0.0 0.0 16.28999089631971 0.0 0.0 0.0 34.53561885213415" Properties=species:S:1:pos:R:3:initial_magmoms:R:1 pbc="T T T"
Si       0.41485743       2.26659060      -0.19350318       0.00000000
Si      -2.27641347      -0.49961430       0.38020284       0.00000000
Si       0.87790068      -0.77911812      -2.05846218       0.00000000
Si       1.14390009      -0.83839743       2.00658965       0.00000000
Si       0.13085757      -2.97913149      -1.58263015       0.00000000
Si      -2.04027363      -2.74431114      -0.44557880       0.00000000
Si      -0.29387160       2.84949567       2.03663565       0.00000000
Si      -1.35697329       3.03997464      -1.48019745       0.00000000
Si       3.01834152       0.37186812      -2.13513129       0.00000000
Si      -1.61430642       1.30468239       3.17147672       0.00000000
