10
Lattice="16.28999089631971 0.0 0.0 0.0 16.28999089631971 0.0 0.0 0.0 34.53561885213415" Properties=species:S:1:pos:R:3:initial_magmoms:R:1 pbc="T T T"
Si       1.05399558       1.99374939      -0.68377110       0.00000000
Si       1.47918087      -1.79579331       0.40938545       0.00000000
Si      -1.51954749      -0.07151310       1.89617921       0.00000000
Si      -1.35156501      -0.55561932      -2.06108688       0.00000000
Si       1.62318447      -1.41486795       2.72931695       0.00000000
Si       0.13781340      -3.55343544      -0.36231338       0.00000000
Si       3.32470755       1.71761760      -0.09075966       0.00000000
Si       0.79465878       3.55299561       1.09277666       0.00000000
Si      -3.67798878      -0.19515420      -1.26472960       0.00000000
Si      -0.59109894      -1.63699839       3.48986077       0.00000000
