10
Lattice="16.28999089631971 0.0 0.0 0.0 16.28999089631971 0.0 0.0 0.0 34.53561885213415" Properties=species:S:1:pos:R:3:initial_magmoms:R:1 pbc="T T T"
Si      -2.32642377       0.36046512       0.79635728       0.00000000
Si      -0.05427828       1.75417236      -1.76563450       0.00000000
Si       1.35156501       0.55561932       2.06108688       0.00000000
Si      -2.16704241      -1.87167213       0.12501901       0.00000000
Si       1.18977273      -1.80183690      -1.89272565       0.00000000
Si       0.72980829       0.13882338      -3.31542126       0.00000000
Si      -0.89099784      -2.87945298       1.82165131       0.00000000
Si       1.48937841      -2.99781612       1.69877351       0.00000000
Si       2.40556059       2.54936871       1.37731579       0.00000000
Si       1.78979859       3.13471728      -1.11698614       0.00000000
