10
Lattice="16.28999089631971 0.0 0.0 0.0 16.28999089631971 0.0 0.0 0.0 34.53561885213415" Properties=species:S:1:pos:R:3:initial_magmoms:R:1 pbc="T T T"
Si      -1.77003882       1.13878503       1.01859411       0.00000000
Si       0.97780725       1.92726990      -0.89533642       0.00000000
Si       0.89041140      -1.03283487       1.92636336       0.00000000
Si      -0.11411145      -0.98648982      -2.15077594       0.00000000
Si      -0.99039942       2.36385819      -2.19822790       0.00000000
Si      -2.75946084      -0.59491080       2.17660859       0.00000000
Si      -2.94104547       1.89975609      -0.83324134       0.00000000
Si       1.30390047       3.28660524       0.93097720       0.00000000
Si      -0.72224973       2.91033882       2.10954039       0.00000000
Si       2.10017196      -0.76435938      -2.91131976       0.00000000
