10
Lattice="16.28999089631971 0.0 0.0 0.0 16.28999089631971 0.0 0.0 0.0 34.53561885213415" Properties=species:S:1:pos:R:3:initial_magmoms:R:1 pbc="T T T"
Si      -0.98942202      -1.73369583       1.15801448       0.00000000
Si      -1.17100665       0.76097106      -1.85183545       0.00000000
Si       1.04778909       1.77155379       1.09094627       0.00000000
Si       1.77003882      -1.13878503      -1.01859411       0.00000000
Si      -2.25108252      -1.35860229      -2.08187734       0.00000000
Si       2.74784607       0.78848487      -1.91393053       0.00000000
Si       0.77963940       1.22507316      -3.21682202       0.00000000
Si       2.66045022      -2.17161990       0.90776925       0.00000000
Si      -1.60586820      -3.11235111      -0.63362535       0.00000000
Si       0.78240870      -2.50707987       2.44470875       0.00000000
