10
Lattice="16.28999089631971 0.0 0.0 0.0 16.28999089631971 0.0 0.0 0.0 34.53561885213415" Properties=species:S:1:pos:R:3:initial_magmoms:R:1 pbc="T T T"
Si      -1.34786718      -1.36238157       1.37447350       0.00000000
Si       1.37419182       1.34457660       1.37509514       0.00000000
Si       1.32805854      -1.40110290      -1.38795967       0.00000000
Si      -1.35793440       1.47305583      -1.40497538       0.00000000
Si       2.38013190       0.24405678      -2.76622661       0.00000000
Si      -2.70187569       2.69748182       0.04853639       0.00000000
Si      -2.69540856      -2.73344571      -0.00209631       0.00000000
Si       2.74009203       2.69651423      -0.00248311       0.00000000
Si      -2.70666495      -0.00604359       2.73566114       0.00000000
Si       0.00995319       2.70840791       2.73459054       0.00000000
