10
Lattice="16.28999089631971 0.0 0.0 0.0 16.28999089631971 0.0 0.0 0.0 34.53561885213415" Properties=species:S:1:pos:R:3:initial_magmoms:R:1 pbc="T T T"
Si      -1.50941511       1.54054530       0.96105774       0.00000000
Si      -1.61979615      -1.84287141       0.37574774       0.00000000
Si       2.06470863      -0.12577509       1.44003250       0.00000000
Si       0.43370496       0.80751159      -2.35049553       0.00000000
Si      -0.40695678       3.01620103      -2.08091034       0.00000000
Si      -0.38260323       3.27569487       1.88426442       0.00000000
Si       1.85906367      -2.13996843       2.59414446       0.00000000
Si       0.73972890       3.80803089      -0.12567519       0.00000000
Si      -2.97276699      -1.13050971       2.26408737       0.00000000
Si      -0.46437903      -3.92872446       0.26388681       0.00000000
