10
Lattice="16.28999089631971 0.0 0.0 0.0 16.28999089631971 0.0 0.0 0.0 34.53561885213415" Properties=species:S:1:pos:R:3:initial_magmoms:R:1 pbc="T T T"
Si       1.71196497      -1.09926549      -1.10859398       0.00000000
Si      -1.05207336      -1.64515968       1.37826694       0.00000000
Si       1.79913276       1.20591612       1.14397371       0.00000000
Si      -1.47111732       0.83201175      -1.85694673       0.00000000
Si       2.05482060       0.31773645      -2.99517229       0.00000000
Si      -2.38013190      -0.24405678       2.76622661       0.00000000
Si       0.35996013       2.45245745       2.76374349       0.00000000
Si      -0.15532515       0.20430918      -3.81819108       0.00000000
Si      -2.05472286      -3.29354478      -0.09680339       0.00000000
Si       0.35316720      -2.96969958       2.77235323       0.00000000
