10
Lattice="16.28999089631971 0.0 0.0 0.0 16.28999089631971 0.0 0.0 0.0 34.53561885213415" Properties=species:S:1:pos:R:3:initial_magmoms:R:1 pbc="T T T"
Si      -1.42516323       1.24318764      -1.28894945       0.00000000
Si      -1.37707515      -1.32102941       1.35124483       0.00000000
Si       1.34330598       1.39067730       1.35414583       0.00000000
Si       1.34695494      -1.36524698      -1.53612446       0.00000000
Si       0.25567155       2.17111491      -2.55885629       0.00000000
Si       2.25280926       0.45623403      -2.68706798       0.00000000
Si      -2.36763747      -0.52419591      -2.59984698       0.00000000
Si       2.71616202      -2.66674999      -0.03504331       0.00000000
Si      -0.02062314      -2.68050365       2.70942787       0.00000000
Si       2.69630451       0.03446964       2.71118919       0.00000000
