10
Lattice="16.28999089631971 0.0 0.0 0.0 16.28999089631971 0.0 0.0 0.0 34.53561885213415" Properties=species:S:1:pos:R:3:initial_magmoms:R:1 pbc="T T T"
Si      -1.35835794       1.35653287      -1.36274175       0.00000000
Si       1.35935163      -1.36011200      -1.36222371       0.00000000
Si       1.35537687       1.35730828       1.37472561       0.00000000
Si      -1.35749457      -1.36266953       1.38909244       0.00000000
Si       2.64028320      -0.14965097       2.70338068       0.00000000
Si      -2.71358820       2.71236261      -0.00562931       0.00000000
Si       2.71837746       2.71061958      -0.00103607       0.00000000
Si      -2.71321353      -2.71873058      -0.00055257       0.00000000
Si       0.00109143       2.71337259      -2.72006140       0.00000000
Si      -2.71453302      -0.00126599      -2.71981965       0.00000000
