10
Lattice="16.28999089631971 0.0 0.0 0.0 16.28999089631971 0.0 0.0 0.0 34.53561885213415" Properties=species:S:1:pos:R:3:initial_magmoms:R:1 pbc="T T T"
Si       0.42098247      -1.18231191       1.97996267       0.00000000
Si       1.11961170      -1.76855643      -1.07609595       0.00000000
Si       1.19399184       2.02694841       0.18110489       0.00000000
Si      -2.21895864       0.24685866      -0.79656449       0.00000000
Si       0.21475107       2.88329742       2.21214577       0.00000000
Si       2.68136658      -0.69916680       2.55283984       0.00000000
Si       1.02723111      -1.35951453      -3.36453094       0.00000000
Si      -0.06923250      -3.41641048       1.61720033       0.00000000
Si      -2.57092038      -1.52347338      -2.34016938       0.00000000
Si      -3.72641895       0.01803303       1.02429249       0.00000000
