10
Lattice="16.28999089631971 0.0 0.0 0.0 16.28999089631971 0.0 0.0 0.0 34.53561885213415" Properties=species:S:1:pos:R:3:initial_magmoms:R:1 pbc="T T T"
Si       0.46038798      -0.54889222      -2.19315117       0.00000000
Si       0.49021497       2.23409857       0.36276234       0.00000000
Si       1.31701392      -0.50005480       1.84962517       0.00000000
Si      -2.34934380       0.16810466      -0.04455097       0.00000000
Si       1.18884420       1.64785405      -2.69329628       0.00000000
Si      -0.99136053       2.57956060       2.18558786       0.00000000
Si      -1.59899382      -1.39748719      -2.94405955       0.00000000
Si      -0.20802330      -1.02081352       3.51987224       0.00000000
Si       0.06923250       3.41641048      -1.61720033       0.00000000
Si      -3.03510393       2.04572101       1.17127617       0.00000000
