10
Lattice="16.28999089631971 0.0 0.0 0.0 16.28999089631971 0.0 0.0 0.0 34.53561885213415" Properties=species:S:1:pos:R:3:initial_magmoms:R:1 pbc="T T T"
Si      -1.34255664       1.31015583      -1.39669719       0.00000000
Si       1.34811153       1.36477620       1.36279010       0.00000000
Si      -1.36876725      -1.35005004       1.35802418       0.00000000
Si       1.31852889      -1.49459121      -1.30838265       0.00000000
Si      -2.43928089      -0.28557999      -2.74271820       0.00000000
Si       2.69980686       2.70723510      -0.01269875       0.00000000
Si       2.70278793       0.00519651       2.71914275       0.00000000
Si       2.70850572      -2.71816569       0.03817915       0.00000000
Si      -0.01075140      -2.70918990       2.71869379       0.00000000
Si      -2.71831230       2.71756296      -0.01004642       0.00000000
