10
Lattice="16.28999089631971 0.0 0.0 0.0 16.28999089631971 0.0 0.0 0.0 34.53561885213415" Properties=species:S:1:pos:R:3:initial_magmoms:R:1 pbc="T T T"
Si      -0.87910614      -0.66062466      -2.06830483       0.00000000
Si       1.78002459      -1.48879197       0.34874087       0.00000000
Si      -1.32343218      -0.97946883       1.70547342       0.00000000
Si       1.35622395       1.97646570       0.31610470       0.00000000
Si       2.07262557      -0.86192019       2.56668863       0.00000000
Si       0.75046401       0.31389201      -3.48716699       0.00000000
Si       0.11218923      -2.75837267      -2.41559521       0.00000000
Si       2.81966868       1.33809318       2.09085661       0.00000000
Si      -0.09850563      -0.62709984       3.70373998       0.00000000
Si       1.26832311      -3.59548712      -0.54908211       0.00000000
