10
Lattice="16.28999089631971 0.0 0.0 0.0 16.28999089631971 0.0 0.0 0.0 34.53561885213415" Properties=species:S:1:pos:R:3:initial_magmoms:R:1 pbc="T T T"
Si      -1.19399184      -2.02694841      -0.18110489       0.00000000
Si       2.36767005      -0.13334994       0.32104329       0.00000000
Si      -0.97924077       0.85634901       2.03104088       0.00000000
Si      -0.43223886       1.56046797      -1.86751463       0.00000000
Si       2.32681473       2.00699316       1.30917697       0.00000000
Si      -2.64057642       2.04520950      -1.18899295       0.00000000
Si      -2.49657282       2.42613486       1.13093854       0.00000000
Si       3.25498635      -0.24964425      -1.86350850       0.00000000
Si      -0.77300937      -3.20926032       1.79885778       0.00000000
Si       0.66666825       2.27403513       2.96319229       0.00000000
