10
Lattice="16.28999089631971 0.0 0.0 0.0 16.28999089631971 0.0 0.0 0.0 34.53561885213415" Properties=species:S:1:pos:R:3:initial_magmoms:R:1 pbc="T T T"
Si       1.09672425       1.59573582       1.34602101       0.00000000
Si      -1.66641813      -1.19356830       1.23057873       0.00000000
Si      -1.13790537       1.34882829      -1.61906525       0.00000000
Si       1.74943197      -1.27796679      -1.17600755       0.00000000
Si      -0.29611962      -2.42709597       2.73390125       0.00000000
Si       2.43928089       0.28557999       2.74271820       0.00000000
Si      -2.68692147       2.67929775      -0.13648484       0.00000000
Si       2.28449331       3.07924983      -0.05266685       0.00000000
Si      -2.78091477      -2.63855646      -0.37105090       0.00000000
Si       0.74639151      -2.55174705      -2.96208715       0.00000000
