10
Lattice="16.28999089631971 0.0 0.0 0.0 16.28999089631971 0.0 0.0 0.0 34.53561885213415" Properties=species:S:1:pos:R:3:initial_magmoms:R:1 pbc="T T T"
Si       1.34255664      -1.31015583       1.39669719       0.00000000
Si      -1.09672425      -1.59573582      -1.34602101       0.00000000
Si       1.18776906       1.48351401      -1.39868786       0.00000000
Si      -1.37575566       1.40740713       1.38665077       0.00000000
Si      -2.23462962      -0.24690753      -2.96508626       0.00000000
Si       2.64183075       2.74530483       0.02917571       0.00000000
Si      -0.02621061      -2.66020587       2.75472136       0.00000000
Si       2.69066817       0.05462037       2.75948728       0.00000000
Si       2.66108553      -2.80474704       0.08831453       0.00000000
Si       0.65270772      -2.87370261      -2.52202856       0.00000000
