10
Lattice="16.28999089631971 0.0 0.0 0.0 16.28999089631971 0.0 0.0 0.0 34.53561885213415" Properties=species:S:1:pos:R:3:initial_magmoms:R:1 pbc="T T T"
Si      -1.32807483       1.38895056       1.34984614       0.00000000
Si       1.40053275      -1.34822556       1.35482272       0.00000000
Si       1.09825551       1.77222168      -1.16943956       0.00000000
Si      -1.45406169      -1.26179082      -1.42786357       0.00000000
Si       2.17386792       0.41625837      -2.80583553       0.00000000
Si      -2.65878864       0.53253639      -2.52347215       0.00000000
Si      -2.64183075      -2.74530483      -0.02917571       0.00000000
Si      -2.66955633       0.02713914       2.72772140       0.00000000
Si       0.04883742      -2.69068446       2.73031157       0.00000000
Si      -2.57162085       2.83771800      -0.27090445       0.00000000
