10
Lattice="16.28999089631971 0.0 0.0 0.0 16.28999089631971 0.0 0.0 0.0 34.53561885213415" Properties=species:S:1:pos:R:3:initial_magmoms:R:1 pbc="T T T"
Si      -1.35653346      -1.35641943       1.35693976       0.00000000
Si       1.35803214       1.35874890       1.35711244       0.00000000
Si      -1.35567009       1.35925389      -1.36028972       0.00000000
Si       1.35852084      -1.35586557      -1.36087682       0.00000000
Si       0.00153126      -2.71409319       2.71436302       0.00000000
Si      -2.71399545       0.00135207       2.71495012       0.00000000
Si      -2.71440270       2.71554300      -0.00072525       0.00000000
Si       2.71580364       0.00063531       2.71419034       0.00000000
Si       2.71572219       2.71511946       0.00000000       0.00000000
Si       0.00120546       2.71598283       2.71488105       0.00000000
