10
Lattice="16.28999089631971 0.0 0.0 0.0 16.28999089631971 0.0 0.0 0.0 34.53561885213415" Properties=species:S:1:pos:R:3:initial_magmoms:R:1 pbc="T T T"
Si      -1.43804862      -1.05498927      -1.68109126       0.00000000
Si      -1.57079583       0.42784056       1.88502420       0.00000000
Si       1.49408622      -1.87242147       1.02001007       0.00000000
Si       1.11540888       1.68116058      -1.69169370       0.00000000
Si      -2.63078613      -2.56805334      -0.31341092       0.00000000
Si      -3.41487270      -0.95270436       1.23637585       0.00000000
Si       2.83045266       2.65181652      -0.37267407       0.00000000
Si      -0.12926115      -2.24112933      -3.21526791       0.00000000
Si       2.90864466      -2.59963965      -0.67216713       0.00000000
Si       1.96530705       2.93425254       1.97612922       0.00000000
