10
Lattice="16.28999089631971 0.0 0.0 0.0 16.28999089631971 0.0 0.0 0.0 34.53561885213415" Properties=species:S:1:pos:R:3:initial_magmoms:R:1 pbc="T T T"
Si       0.45906849       1.73072128      -1.62065389       0.00000000
Si      -1.09760391      -1.69109815      -1.33777248       0.00000000
Si      -1.66948717       0.38224485       1.73652096       0.00000000
Si       2.23475994      -0.24630969       1.20591541       0.00000000
Si       0.23941413      -3.60294142      -0.95594646       0.00000000
Si      -3.50906867       1.48449793       0.36248606       0.00000000
Si      -0.26220384       1.30097479       3.66127534       0.00000000
Si       1.65578076      -0.21427540       3.53437721       0.00000000
Si      -1.03513176      -1.01019244      -3.64402786       0.00000000
Si      -0.76585806       1.37835229      -3.61892045       0.00000000
