10
Lattice="16.28999089631971 0.0 0.0 0.0 16.28999089631971 0.0 0.0 0.0 34.53561885213415" Properties=species:S:1:pos:R:3:initial_magmoms:R:1 pbc="T T T"
Si       1.66948717      -0.38224485      -1.73652096       0.00000000
Si      -0.72807340      -2.15823019       0.95953817       0.00000000
Si      -1.83958150       1.10225308      -1.37403490       0.00000000
Si       1.40728333       0.91872994       1.92475438       0.00000000
Si      -0.32349497      -0.05657354       3.23293777       0.00000000
Si       0.57188326      -2.07334300      -3.07429344       0.00000000
Si       3.32526793      -0.59652025       1.79785625       0.00000000
Si       3.90424711      -0.62855454      -0.53060554       0.00000000
Si      -3.33203872       2.46701299       0.04613961       0.00000000
Si      -1.71282901      -2.66274778      -2.68103613       0.00000000
