10
Lattice="16.28999089631971 0.0 0.0 0.0 16.28999089631971 0.0 0.0 0.0 34.53561885213415" Properties=species:S:1:pos:R:3:initial_magmoms:R:1 pbc="T T T"
Si      -1.35571896      -1.35606105      -1.38964501       0.00000000
Si       1.35749457       1.36266953      -1.38909244       0.00000000
Si      -1.36555812       1.40174458       1.47487896       0.00000000
Si       1.25353179      -1.51474194       1.49031639       0.00000000
Si       2.70067023      -2.71642266      -0.02141210       0.00000000
Si      -2.70076797      -2.71813311      -0.00227935       0.00000000
Si      -2.70831024       2.71313275      -0.02959704       0.00000000
Si       2.71287144       2.71997781      -0.01436683       0.00000000
Si       0.00164529      -2.71147050      -2.75141976       0.00000000
Si      -2.71516833       0.00272043      -2.75128161       0.00000000
