10
Lattice="16.28999089631971 0.0 0.0 0.0 16.28999089631971 0.0 0.0 0.0 34.53561885213415" Properties=species:S:1:pos:R:3:initial_magmoms:R:1 pbc="T T T"
Si       0.56993823       1.48605525       1.72681644       0.00000000
Si      -1.19684259      -1.73819187       1.07492174       0.00000000
Si       1.76761161      -0.70560135      -1.62110285       0.00000000
Si      -0.54721368       1.62970047      -1.92128662       0.00000000
Si       0.91059471      -2.95464762      -1.40667108       0.00000000
Si       0.21442527      -3.60509103       0.81452303       0.00000000
Si      -1.69365501      -0.78066567       3.20887882       0.00000000
Si       0.49194171       0.18684630       3.68833708       0.00000000
Si       2.19144483       2.90348073       0.85558590       0.00000000
Si      -3.46755456      -1.46206008       0.48191029       0.00000000
