10
Lattice="16.28999089631971 0.0 0.0 0.0 16.28999089631971 0.0 0.0 0.0 34.53561885213415" Properties=species:S:1:pos:R:3:initial_magmoms:R:1 pbc="T T T"
Si       0.34828020      -2.05407845      -1.09764619       0.00000000
Si       1.08994761       1.45911159      -1.50820585       0.00000000
Si      -2.31933762       0.24011460      -0.44637312       0.00000000
Si       1.03236246      -0.06318891       2.15616350       0.00000000
Si       3.25595465       0.74790648      -0.93139163       0.00000000
Si      -0.75758274       1.30950423       3.18256266       0.00000000
Si      -1.03118958      -1.42007586      -3.06648838       0.00000000
Si       3.02557332       1.13015133       1.45049680       0.00000000
Si      -3.04779384      -1.95663167       0.05377199       0.00000000
Si      -2.41171821       0.64915650      -2.73480811       0.00000000
