10
Lattice="16.28999089631971 0.0 0.0 0.0 16.28999089631971 0.0 0.0 0.0 34.53561885213415" Properties=species:S:1:pos:R:3:initial_magmoms:R:1 pbc="T T T"
Si      -0.80163090       1.73206846      -1.36916537       0.00000000
Si      -0.51828264      -1.87254106      -1.40549687       0.00000000
Si       2.39086701       0.34617227       0.01764771       0.00000000
Si      -1.55317005      -0.27625138       2.05428336       0.00000000
Si       2.56881897       0.94450072      -2.33232979       0.00000000
Si       0.45908478       1.42563727      -3.36422012       0.00000000
Si      -2.23423866      -0.94897951      -2.80377578       0.00000000
Si      -1.32234075      -3.57608410      -0.00227935       0.00000000
Si      -0.34386561       3.80580175      -0.43248980       0.00000000
Si      -2.92943070       1.23994919      -2.17222257       0.00000000
