10
Lattice="16.28999089631971 0.0 0.0 0.0 16.28999089631971 0.0 0.0 0.0 34.53561885213415" Properties=species:S:1:pos:R:3:initial_magmoms:R:1 pbc="T T T"
Si      -1.35752715       1.35285192      -1.35818304       0.00000000
Si       1.34591142       1.33542162       1.38995583       0.00000000
Si       1.35685341      -1.36309833      -1.35707790       0.00000000
Si      -1.36536264      -1.35560493       1.37973328       0.00000000
Si      -0.26218755       2.51918334       2.78343429       0.00000000
Si      -2.71459818       2.70956457       0.00141596       0.00000000
Si       0.00038688       2.71016730      -2.71515734       0.00000000
Si       2.71515923       2.71332756       0.00397160       0.00000000
Si       2.71484972      -0.00465894      -2.71488105       0.00000000
Si      -2.71500543      -0.00420282      -2.71526094       0.00000000
