10
Lattice="16.28999089631971 0.0 0.0 0.0 16.28999089631971 0.0 0.0 0.0 34.53561885213415" Properties=species:S:1:pos:R:3:initial_magmoms:R:1 pbc="T T T"
Si      -1.12829427       1.45134126      -1.42514764       0.00000000
Si       0.74217240       1.88310771       1.23540885       0.00000000
Si       1.57266918      -1.24367634      -1.37154833       0.00000000
Si      -1.73848509      -0.78460785       1.57033547       0.00000000
Si       1.45984464       0.07237647       2.86020702       0.00000000
Si      -2.44534077      -2.51615340       0.06882953       0.00000000
Si      -3.24467478       1.07898444       1.24017477       0.00000000
Si      -2.43615321       2.78835930      -0.11213722       0.00000000
Si      -2.49447141       0.10782351      -2.75501146       0.00000000
Si       2.67584427       2.63111193       0.03215268       0.00000000
