10
Lattice="16.28999089631971 0.0 0.0 0.0 16.28999089631971 0.0 0.0 0.0 34.53561885213415" Properties=species:S:1:pos:R:3:initial_magmoms:R:1 pbc="T T T"
Si      -0.74217240      -1.88310771      -1.23540885       0.00000000
Si       1.93367187       0.74800422      -1.20325617       0.00000000
Si      -1.54579068       1.92751425      -0.08326542       0.00000000
Si       0.71767224      -1.81073124       1.62479817       0.00000000
Si       2.57421163       1.03824315       1.15873973       0.00000000
Si      -1.87046667      -0.43176645      -2.66055649       0.00000000
Si       0.02269197      -0.65855583       3.49507565       0.00000000
Si      -3.17832561       0.90525159      -1.34754607       0.00000000
Si       0.84149253       2.31456465      -2.60516133       0.00000000
Si       1.01221173       1.55181798       3.14864867       0.00000000
