10
Lattice="16.28999089631971 0.0 0.0 0.0 16.28999089631971 0.0 0.0 0.0 34.53561885213415" Properties=species:S:1:pos:R:3:initial_magmoms:R:1 pbc="T T T"
Si      -0.75647502      -1.61943777       1.53731391       0.00000000
Si      -1.66045599       1.78295679       0.15786240       0.00000000
Si       1.89819781       0.91958679       1.42168169       0.00000000
Si      -1.03834089      -2.02799097      -1.58857028       0.00000000
Si      -2.44651365      -2.56181427       0.22623209       0.00000000
Si      -1.99883187      -0.27851013       2.94280042       0.00000000
Si      -3.08029239       1.03935087      -1.74132141       0.00000000
Si       0.71327394       2.44289727       2.88637954       0.00000000
Si      -3.38880870       0.94506435       1.59623862       0.00000000
Si       3.33615032       2.24598375       0.01305447       0.00000000
