10
Lattice="16.28999089631971 0.0 0.0 0.0 16.28999089631971 0.0 0.0 0.0 34.53561885213415" Properties=species:S:1:pos:R:3:initial_magmoms:R:1 pbc="T T T"
Si      -1.72835271      -0.83789244       1.43837621       0.00000000
Si       1.66045599      -1.78295679      -0.15786240       0.00000000
Si       0.91730619       1.90990476       1.29195547       0.00000000
Si      -1.41983640      -0.74360592      -1.89918381       0.00000000
Si      -0.33837588      -2.06146692       2.78493801       0.00000000
Si       2.37372993       0.65994048       2.72851714       0.00000000
Si       0.90398097      -3.40239456       1.37945151       0.00000000
Si      -2.78319537      -2.62989018       0.19658138       0.00000000
Si       3.55865380      -0.86337000       1.26381929       0.00000000
Si      -1.77969879       0.98759754      -3.34035599       0.00000000
