10
Lattice="16.28999089631971 0.0 0.0 0.0 16.28999089631971 0.0 0.0 0.0 34.53561885213415" Properties=species:S:1:pos:R:3:initial_magmoms:R:1 pbc="T T T"
Si       0.85701690       2.24904627      -0.21443178       0.00000000
Si      -0.69616944      -0.65044341       2.22119410       0.00000000
Si      -1.92902922      -0.22232592      -1.47073469       0.00000000
Si       2.04353163      -1.32524037       0.06900221       0.00000000
Si      -0.51447078      -0.94954410      -3.16291188       0.00000000
Si      -0.91059471       2.95464762       1.40667108       0.00000000
Si      -2.10743730       1.21645575       2.48159282       0.00000000
Si       1.05401187      -3.53561418       0.41542919       0.00000000
Si       2.92392468      -0.88697421       2.24046499       0.00000000
Si      -1.22290659      -3.62998215       0.20980400       0.00000000
