10
Lattice="16.28999089631971 0.0 0.0 0.0 16.28999089631971 0.0 0.0 0.0 34.53561885213415" Properties=species:S:1:pos:R:3:initial_magmoms:R:1 pbc="T T T"
Si      -2.09021877       0.33682833      -1.06418115       0.00000000
Si       0.31247478      -2.36877777      -0.30826511       0.00000000
Si       1.75197551       1.47883878      -0.74866356       0.00000000
Si       0.15351696      -0.51517125       2.40015778       0.00000000
Si       1.40254524      -2.41078968       1.79122541       0.00000000
Si      -1.76435361      -1.38699576      -2.65551429       0.00000000
Si       1.47673804       1.26928422       3.10064413       0.00000000
Si      -1.79222580      -3.07797921      -0.95345990       0.00000000
Si       3.00740183       1.73253924       1.28621077       0.00000000
Si      -3.73699116      -0.50147136       0.46198323       0.00000000
