10
Lattice="16.28999089631971 0.0 0.0 0.0 16.28999089631971 0.0 0.0 0.0 34.53561885213415" Properties=species:S:1:pos:R:3:initial_magmoms:R:1 pbc="T T T"
Si       1.62178094       1.17788103       1.38713223       0.00000000
Si      -1.21676526      -1.65367935       1.33916569       0.00000000
Si       1.64919375      -1.37370312      -1.38474095       0.00000000
Si      -1.70781102       1.56483369      -1.37938792       0.00000000
Si       1.06566315       0.52523847      -3.13897869       0.00000000
Si       0.17516637       2.61601110      -2.36389536       0.00000000
Si       0.00356751      -1.68539598      -3.14978834       0.00000000
Si      -2.48114619      -0.19965024       2.78127033       0.00000000
Si       0.24447744       2.54019744       2.77515407       0.00000000
Si       2.87662571       2.78971137      -0.05663845       0.00000000
