10
Lattice="16.28999089631971 0.0 0.0 0.0 16.28999089631971 0.0 0.0 0.0 34.53561885213415" Properties=species:S:1:pos:R:3:initial_magmoms:R:1 pbc="T T T"
Si       1.08250020      -1.52914230       1.56418812       0.00000000
Si      -1.94540067      -1.14854274      -0.95395790       0.00000000
Si      -1.61875359       1.18931197       1.55663863       0.00000000
Si       1.93003173       0.22087611      -1.99678985       0.00000000
Si       2.33461017       2.32253276       0.27660974       0.00000000
Si      -0.86978826      -2.50450605      -2.59035387       0.00000000
Si       2.45980370      -2.89145871       0.17616629       0.00000000
Si       2.43378857      -0.18433764       2.94648395       0.00000000
Si      -2.98796067       2.49081498       0.05555748       0.00000000
Si      -0.28699722       2.53471164       2.94351388       0.00000000
