10
Lattice="16.28999089631971 0.0 0.0 0.0 16.28999089631971 0.0 0.0 0.0 34.53561885213415" Properties=species:S:1:pos:R:3:initial_magmoms:R:1 pbc="T T T"
Si       0.44324601      -0.07773588       2.27368827       0.00000000
Si       1.40064352      -0.85408470      -1.70602599       0.00000000
Si      -1.83705003      -1.48411674      -0.19129290       0.00000000
Si      -0.85572414       2.22071796      -0.25805029       0.00000000
Si      -2.72563695      -0.42792201      -2.08308609       0.00000000
Si      -1.73611719       1.78245180      -2.42951307       0.00000000
Si      -2.72436633      -1.36782243       1.99325889       0.00000000
Si       2.56366807       0.74254707       2.52776696       0.00000000
Si      -0.63561366      -2.04331986       3.10230184       0.00000000
Si      -2.73734946       2.46350412       1.27933818       0.00000000
