10
Lattice="16.28999089631971 0.0 0.0 0.0 16.28999089631971 0.0 0.0 0.0 34.53561885213415" Properties=species:S:1:pos:R:3:initial_magmoms:R:1 pbc="T T T"
Si      -1.35283563       1.35907470       1.35524751       0.00000000
Si      -1.35549090      -1.35610992      -1.35725058       0.00000000
Si       1.35901610       1.35935163      -1.35707790       0.00000000
Si       1.36203593      -1.35843939       1.35925365       0.00000000
Si       0.00438201       2.70304857       2.70417500       0.00000000
Si      -2.71225242       2.71562445      -0.00017268       0.00000000
Si      -2.71296918       0.00179190      -2.71522641       0.00000000
Si       0.00166158      -2.71358820      -2.71474291       0.00000000
Si       2.71537100      -2.71337643       0.00006907       0.00000000
Si      -2.71559187      -2.71542897      -0.00062164       0.00000000
