10
Lattice="16.28999089631971 0.0 0.0 0.0 16.28999089631971 0.0 0.0 0.0 34.53561885213415" Properties=species:S:1:pos:R:3:initial_magmoms:R:1 pbc="T T T"
Si       1.35721764       1.34397387       1.34892749       0.00000000
Si       1.35283563      -1.35907470      -1.35524751       0.00000000
Si      -1.35941679       1.35654975      -1.35542019       0.00000000
Si      -1.37559276      -1.36243044       1.37448386       0.00000000
Si      -0.07848522       2.56701078       2.71018420       0.00000000
Si       2.53110762      -0.02349018       2.85585553       0.00000000
Si       2.71185173       0.00027693      -2.71232541       0.00000000
Si       2.71246419       2.71401174       0.00656177       0.00000000
Si      -0.00203625       2.71428575      -2.71298159       0.00000000
Si      -0.00265527      -2.71518462      -2.71249809       0.00000000
