10
Lattice="16.28999089631971 0.0 0.0 0.0 16.28999089631971 0.0 0.0 0.0 34.53561885213415" Properties=species:S:1:pos:R:3:initial_magmoms:R:1 pbc="T T T"
Si       1.43570286      -1.22303691      -1.36125671       0.00000000
Si       1.80121788       1.06414818       1.12164846       0.00000000
Si      -1.28490633       1.50695925      -1.32865507       0.00000000
Si      -1.02920220      -1.75710456       1.49504778       0.00000000
Si       2.60959284      -2.59050096       0.14567132       0.00000000
Si       0.07848522      -2.56701078      -2.71018420       0.00000000
Si      -2.64028320       0.14965097      -2.70338068       0.00000000
Si       0.74298690      -3.40995312       1.52295257       0.00000000
Si      -2.74424598      -2.72776050       0.17602815       0.00000000
Si       1.35273789       1.31113064       3.38867135       0.00000000
