10
Lattice="16.28999089631971 0.0 0.0 0.0 16.28999089631971 0.0 0.0 0.0 34.53561885213415" Properties=species:S:1:pos:R:3:initial_magmoms:R:1 pbc="T T T"
Si       1.62150660       1.41742548      -0.87123054       0.00000000
Si      -0.56993823      -1.48605525      -1.72681644       0.00000000
Si      -1.77456744       1.51487226       0.28018763       0.00000000
Si      -0.07799652      -1.29920895       1.96152064       0.00000000
Si       0.24203682       2.05142806      -2.84007274       0.00000000
Si      -2.26359324      -2.26672092       1.48206238       0.00000000
Si       1.27322640       3.47150393       0.22641564       0.00000000
Si       3.66536535       0.29087424      -0.57481116       0.00000000
Si      -1.76678082      -3.22424712      -0.65189471       0.00000000
Si      -1.11715191       0.14364522      -3.64810306       0.00000000
