10
Lattice="16.28999089631971 0.0 0.0 0.0 16.28999089631971 0.0 0.0 0.0 34.53561885213415" Properties=species:S:1:pos:R:3:initial_magmoms:R:1 pbc="T T T"
Si       0.26324772       1.83272274       1.54139460       0.00000000
Si       1.26820812      -1.82518047       0.93860957       0.00000000
Si      -2.20444425      -0.64980810      -1.23171353       0.00000000
Si       1.33463385       1.15812126      -1.92118301       0.00000000
Si       2.69991179      -2.17559466      -1.04881280       0.00000000
Si      -1.78061103       2.95927398       1.24497522       0.00000000
Si       3.54546053       0.10687869      -1.69998225       0.00000000
Si      -0.13753647      -3.78582858       1.22318323       0.00000000
Si       1.68246445       3.55193743       0.65931987       0.00000000
Si      -3.97205586       0.05579325       0.38938932       0.00000000
