10
Lattice="16.28999089631971 0.0 0.0 0.0 16.28999089631971 0.0 0.0 0.0 34.53561885213415" Properties=species:S:1:pos:R:3:initial_magmoms:R:1 pbc="T T T"
Si      -0.85701690      -2.24904627       0.21443178       0.00000000
Si      -1.76761161       0.70560135       1.62110285       0.00000000
Si       2.20444425       0.64980810       1.23171353       0.00000000
Si       0.32250942       0.40001724      -2.62108226       0.00000000
Si      -2.31482529       2.33530182      -0.30018377       0.00000000
Si      -1.44967968       2.05286580      -2.64898705       0.00000000
Si       1.18651473      -3.57428664       0.28343398       0.00000000
Si      -2.78604612      -2.47137219      -1.25630291       0.00000000
Si       3.53907810       1.80792936      -0.68946948       0.00000000
Si      -1.55318634      -2.89948968       2.43562588       0.00000000
