10
Lattice="16.28999089631971 0.0 0.0 0.0 16.28999089631971 0.0 0.0 0.0 34.53561885213415" Properties=species:S:1:pos:R:3:initial_magmoms:R:1 pbc="T T T"
Si       1.65433095      -0.96677892      -1.31715470       0.00000000
Si      -2.04717896      -1.14528474      -0.18949705       0.00000000
Si      -0.53499618       2.29480488      -0.18928983       0.00000000
Si       0.85657707       0.34360497       2.17881888       0.00000000
Si      -1.91194427       2.26724220       1.68102219       0.00000000
Si      -2.97403991       0.05660775       1.67021253       0.00000000
Si      -1.28201160      -3.43147221      -0.23245938       0.00000000
Si       2.71743264      -1.15725789       2.19967840       0.00000000
Si      -1.32841366       0.36830061       3.43525993       0.00000000
Si       2.64375297       0.76691691      -2.47516919       0.00000000
