10
Lattice="16.28999089631971 0.0 0.0 0.0 16.28999089631971 0.0 0.0 0.0 34.53561885213415" Properties=species:S:1:pos:R:3:initial_magmoms:R:1 pbc="T T T"
Si      -0.85657707      -0.34360497      -2.17881888       0.00000000
Si       1.59480729       1.73916927       0.37833792       0.00000000
Si       1.86085557      -1.50086286       0.02085953       0.00000000
Si      -2.18499073       0.02469564       1.25644105       0.00000000
Si      -0.97164963      -1.70215839       2.54358429       0.00000000
Si       0.54042075      -3.04567614       1.15570060       0.00000000
Si      -1.39157325       1.95119991      -2.36810871       0.00000000
Si      -2.76852134       1.92363723      -0.49779669       0.00000000
Si       2.14865100       0.88523118       2.55594804       0.00000000
Si       0.79775388      -1.31038389      -3.49597358       0.00000000
