10
Lattice="16.28999089631971 0.0 0.0 0.0 16.28999089631971 0.0 0.0 0.0 34.53561885213415" Properties=species:S:1:pos:R:3:initial_magmoms:R:1 pbc="T T T"
Si      -1.01140930      -1.79835084      -1.24697829       0.00000000
Si       0.33855344      -1.20989088       2.06191574       0.00000000
Si       1.87112967       0.93847018      -1.20380874       0.00000000
Si      -1.81978426       1.85629830      -0.27100115       0.00000000
Si      -0.02465166       1.34686927       2.42992750       0.00000000
Si      -2.18529928      -0.43088679      -2.75390632       0.00000000
Si       0.54136231       2.31133501      -2.71933615       0.00000000
Si      -2.26826425       2.10328076       1.99602174       0.00000000
Si      -2.87801524      -2.61780300       0.13030296       0.00000000
Si      -3.62100214       0.79215012      -1.39264961       0.00000000
