10
Lattice="16.28999089631971 0.0 0.0 0.0 16.28999089631971 0.0 0.0 0.0 34.376317263855086" Properties=species:S:1:pos:R:3:initial_magmoms:R:1 pbc="T T T"
Si       1.34996859       1.34751370       1.37740824       0.00000000
Si      -1.36670168      -1.36855939       1.37431437       0.00000000
Si      -1.35913171       1.40081784      -1.38567575       0.00000000
Si       1.43433450      -1.31315710      -1.40083571       0.00000000
Si      -0.02479338      -2.53544467      -2.79964120       0.00000000
Si      -2.46604536       0.02387040      -2.88602893       0.00000000
Si       2.70948312       2.69116014      -0.01704723       0.00000000
Si       2.70674640      -2.73338446       0.00660713       0.00000000
Si      -2.73372927       2.70758046       0.01395335       0.00000000
Si      -0.00744453       2.70582114       2.73675171       0.00000000
