10
Lattice="16.28999089631971 0.0 0.0 0.0 16.28999089631971 0.0 0.0 0.0 34.376317263855086" Properties=species:S:1:pos:R:3:initial_magmoms:R:1 pbc="T T T"
Si       0.52064469      -1.72180413       1.43541831       0.00000000
Si      -1.92060729       0.83751095       1.34903057       0.00000000
Si      -1.63348627      -0.66464829      -1.86587879       0.00000000
Si       2.59949304       0.64835829      -0.82946662       0.00000000
Si      -0.00244350       0.08472429      -3.48641367       0.00000000
Si       1.97977257      -0.49951656       2.83422379       0.00000000
Si       1.51047396      -3.19173228      -0.06428375       0.00000000
Si      -2.77890200       2.35224409      -0.46573061       0.00000000
Si      -0.81369365       2.21445838       2.84938375       0.00000000
Si       0.16063569       3.55033124      -1.09908023       0.00000000
