10
Lattice="16.28999089631971 0.0 0.0 0.0 16.28999089631971 0.0 0.0 0.0 34.376317263855086" Properties=species:S:1:pos:R:3:initial_magmoms:R:1 pbc="T T T"
Si       1.35132066      -1.36140626      -1.36281548       0.00000000
Si      -1.36280511       1.35437036      -1.36202483       0.00000000
Si       1.35762489       1.34155827       1.38227249       0.00000000
Si      -1.37104785      -1.35689393       1.36790318       0.00000000
Si      -0.09042579       2.63417955       2.78070186       0.00000000
Si       2.70868491      -2.71313417      -0.00068753       0.00000000
Si       2.71288773       2.71186656      -0.00216571       0.00000000
Si       2.71124244      -0.00169940      -2.71834318       0.00000000
Si      -2.71728603       2.71359330      -0.00051565       0.00000000
Si      -0.00335574       2.71295799      -2.71889320       0.00000000
