10
Lattice="16.28999089631971 0.0 0.0 0.0 16.28999089631971 0.0 0.0 0.0 34.376317263855086" Properties=species:S:1:pos:R:3:initial_magmoms:R:1 pbc="T T T"
Si      -1.35762489      -1.34155827      -1.38227249       0.00000000
Si       1.35526284       1.37030828      -1.38443820       0.00000000
Si      -1.44805068       1.29262127       1.39842937       0.00000000
Si       1.39326741      -1.43027570       1.70884769       0.00000000
Si       0.14270040       2.30180306       2.85368282       0.00000000
Si       2.20105593       0.75226568       2.95887441       0.00000000
Si       2.69606016      -2.70221519       0.00354076       0.00000000
Si      -2.72867274      -2.69845220      -0.01436931       0.00000000
Si       2.70650205       2.73213599      -0.03623266       0.00000000
Si      -0.00630423      -2.70296453      -2.74508797       0.00000000
