10
Lattice="16.28999089631971 0.0 0.0 0.0 16.28999089631971 0.0 0.0 0.0 34.376317263855086" Properties=species:S:1:pos:R:3:initial_magmoms:R:1 pbc="T T T"
Si       2.31215373      -0.34867116       0.00419391       0.00000000
Si      -0.95511528      -0.62719758      -2.05793938       0.00000000
Si      -0.69996501      -1.40380867       1.79801990       0.00000000
Si      -0.92906757       2.24075466       0.32427198       0.00000000
Si      -0.65104614       0.18120996       3.50686759       0.00000000
Si      -3.12280929       0.22882563      -1.77278767       0.00000000
Si       0.81604755      -0.18003708      -3.58139549       0.00000000
Si      -1.84718826       1.98840627       2.52755452       0.00000000
Si       3.22071219       1.79831826      -0.55259961       0.00000000
Si      -2.95503858      -1.79470514       1.49145173       0.00000000
