10
Lattice="16.28999089631971 0.0 0.0 0.0 16.28999089631971 0.0 0.0 0.0 34.376317263855086" Properties=species:S:1:pos:R:3:initial_magmoms:R:1 pbc="T T T"
Si      -0.33583464      -2.24371034      -0.57185036       0.00000000
Si      -2.16769401       0.85602321       0.28515171       0.00000000
Si       0.95511528       0.62719758       2.05793938       0.00000000
Si       1.77116283       0.44716050      -1.52345610       0.00000000
Si       0.91619847      -1.40761564      -2.72322462       0.00000000
Si      -1.45064079       3.09210264       0.49206288       0.00000000
Si       1.76454909      -3.27991724      -0.07139965       0.00000000
Si       0.02604771       2.86795224       2.38221137       0.00000000
Si       3.26726901       0.27852642       2.06213330       0.00000000
Si      -3.54680541       0.16457787      -1.57618940       0.00000000
