10
Lattice="16.28999089631971 0.0 0.0 0.0 16.28999089631971 0.0 0.0 0.0 34.376317263855086" Properties=species:S:1:pos:R:3:initial_magmoms:R:1 pbc="T T T"
Si      -2.25507357      -0.39089647      -0.30656817       0.00000000
Si       0.04891887       1.58501863       1.70884769       0.00000000
Si       1.02750804      -1.98502351       0.82853846       0.00000000
Si       0.69996501       1.40380867      -1.79801990       0.00000000
Si       2.39524902       2.00691334       1.88471702       0.00000000
Si      -1.14722325       3.39221494       0.72953461       0.00000000
Si       3.01211874       1.05513751      -1.79382599       0.00000000
Si       3.60883773       0.52933052       0.48477510       0.00000000
Si      -3.28647003      -1.00531033       1.71637610       0.00000000
Si       3.36891861      -1.82837887       0.56542198       0.00000000
