10
Lattice="16.28999089631971 0.0 0.0 0.0 16.28999089631971 0.0 0.0 0.0 34.376317263855086" Properties=species:S:1:pos:R:3:initial_magmoms:R:1 pbc="T T T"
Si      -0.12378771       0.70376058      -2.27131330       0.00000000
Si      -1.66470768      -1.70193033       0.18301962       0.00000000
Si      -0.71141688       1.90314441       1.33672384       0.00000000
Si       1.91803347      -0.96384672       1.22747585       0.00000000
Si       1.33055091      -0.91696410      -3.31057871       0.00000000
Si       1.19506698       3.48804738       0.83159796       0.00000000
Si       2.77856901      -2.75853883      -0.23864053       0.00000000
Si       0.94446162       2.78334198      -2.62081752       0.00000000
Si      -2.42909964       0.93872754      -3.00861697       0.00000000
Si       3.21600438       2.37527748       0.10144457       0.00000000
