10
Lattice="16.28999089631971 0.0 0.0 0.0 16.28999089631971 0.0 0.0 0.0 34.376317263855086" Properties=species:S:1:pos:R:3:initial_magmoms:R:1 pbc="T T T"
Si       1.91720268       0.51798942       1.33638008       0.00000000
Si      -0.23855076      -2.34642789       0.52678298       0.00000000
Si       0.82406223      -0.86929956      -2.12676081       0.00000000
Si      -2.10703005       1.46479680       0.56198435       0.00000000
Si       3.34744839      -0.93545325      -0.01656939       0.00000000
Si      -2.00971359      -2.79358839       2.05023908       0.00000000
Si      -1.27698939       3.19538124       2.11156647       0.00000000
Si      -0.76668885      -1.87848135      -3.58201426       0.00000000
Si       2.16611388      -0.36807255       3.55557886       0.00000000
Si       1.88478558       0.76654224      -3.67706483       0.00000000
