10
Lattice="16.28999089631971 0.0 0.0 0.0 16.28999089631971 0.0 0.0 0.0 34.376317263855086" Properties=species:S:1:pos:R:3:initial_magmoms:R:1 pbc="T T T"
Si      -1.91720268      -0.51798942      -1.33638008       0.00000000
Si       0.24891120      -0.88606197       2.21919878       0.00000000
Si       1.43024571      -1.45344267      -1.35294947       0.00000000
Si       1.19874852       2.11421394      -0.30319929       0.00000000
Si       2.51240670      -2.62135422       0.42774475       0.00000000
Si      -2.15575344      -2.86441731      -0.80959710       0.00000000
Si       2.78609499       0.16737975      -2.45742679       0.00000000
Si      -0.40860207       0.87676038       3.62553470       0.00000000
Si       2.50110144      -1.49441202       2.52655760       0.00000000
Si      -1.09314045      -1.38728898      -3.46314089       0.00000000
