10
Lattice="16.28999089631971 0.0 0.0 0.0 16.28999089631971 0.0 0.0 0.0 34.376317263855086" Properties=species:S:1:pos:R:3:initial_magmoms:R:1 pbc="T T T"
Si       1.06824933       2.07958140      -0.34950421       0.00000000
Si       0.12378771      -0.70376058       2.27131330       0.00000000
Si       1.45433862      -1.62072468      -1.03926540       0.00000000
Si      -2.30531193       0.23496696      -0.73730366       0.00000000
Si       0.50054283      -1.28648646      -3.20201824       0.00000000
Si       3.27086910       1.49175675      -0.01100043       0.00000000
Si      -1.54091997      -2.40569091       2.45433292       0.00000000
Si       3.58868700      -0.56777166      -1.01386129       0.00000000
Si      -2.92643334      -2.01717441      -1.27536208       0.00000000
Si      -3.41376498       1.45702647       0.94593365       0.00000000
