10
Lattice="16.28999089631971 0.0 0.0 0.0 16.28999089631971 0.0 0.0 0.0 34.376317263855086" Properties=species:S:1:pos:R:3:initial_magmoms:R:1 pbc="T T T"
Si       1.20862026       1.60720398       1.26260988       0.00000000
Si       0.02907765       0.14735934      -2.38592401       0.00000000
Si      -1.55649321      -1.28796885       1.34147951       0.00000000
Si       1.79825310       3.04163622      -0.89120652       0.00000000
Si      -2.13066684       0.95871537      -2.83525710       0.00000000
Si       2.51700048       0.14993316       2.83582917       0.00000000
Si      -0.20031813      -2.58949098       2.83897116       0.00000000
Si       1.93556151       1.73226231      -2.89104990       0.00000000
Si      -3.28437351      -2.30114169       0.01498808       0.00000000
Si      -0.20233809       2.85242787       2.84872029       0.00000000
