10
Lattice="16.28999089631971 0.0 0.0 0.0 16.28999089631971 0.0 0.0 0.0 34.376317263855086" Properties=species:S:1:pos:R:3:initial_magmoms:R:1 pbc="T T T"
Si      -0.09453087      -1.00233999       2.13549240       0.00000000
Si      -1.88727795       1.48590864       0.09656313       0.00000000
Si       1.81053576       1.61621235       0.02791359       0.00000000
Si      -0.01387908      -1.17845118      -2.15360873       0.00000000
Si       1.77960105      -2.25342828      -1.12747508       0.00000000
Si      -0.07558560       1.05427251       3.59848053       0.00000000
Si       2.23342416      -1.67945013       2.59187264       0.00000000
Si       1.20757770       0.32786883      -3.60807152       0.00000000
Si       2.91532356       1.27536039      -2.18251923       0.00000000
Si      -2.01482865      -2.69130348       2.02084732       0.00000000
