10
Lattice="16.28999089631971 0.0 0.0 0.0 16.28999089631971 0.0 0.0 0.0 34.376317263855086" Properties=species:S:1:pos:R:3:initial_magmoms:R:1 pbc="T T T"
Si       0.94688883      -1.52189325      -1.46608200       0.00000000
Si       1.38727269       1.08888876       1.55174783       0.00000000
Si      -0.91331514       1.72835271      -1.31551364       0.00000000
Si      -1.59918930      -0.67056156       1.62957585       0.00000000
Si      -0.07965810       2.85021243       2.02710381       0.00000000
Si      -2.01960162       1.55892042       2.40043082       0.00000000
Si      -0.59921136      -3.31951104      -1.27312762       0.00000000
Si       1.98189027      -0.63408825       2.96265581       0.00000000
Si       1.41977124      -0.17322786      -3.33220142       0.00000000
Si       0.03046230       3.62058282      -0.28666427       0.00000000
