10
Lattice="16.28999089631971 0.0 0.0 0.0 16.28999089631971 0.0 0.0 0.0 34.376317263855086" Properties=species:S:1:pos:R:3:initial_magmoms:R:1 pbc="T T T"
Si       1.58900805       0.73881666       1.51565268       0.00000000
Si      -0.58704273       1.91396097      -1.26501481       0.00000000
Si      -1.81767078      -1.17118584       1.01637076       0.00000000
Si       0.67386843      -1.39007457      -1.86893829       0.00000000
Si      -2.59478523       0.84999591      -1.88550768       0.00000000
Si      -2.71403292      -1.52213760      -1.17460504       0.00000000
Si       2.99403684       1.95043428       0.06806515       0.00000000
Si      -0.90284067      -3.10619349      -1.56945164       0.00000000
Si       2.90271510      -1.98273735      -1.45078453       0.00000000
Si      -2.72301359       0.17938548       2.74550049       0.00000000
