10
Lattice="16.28999089631971 0.0 0.0 0.0 16.28999089631971 0.0 0.0 0.0 34.376317263855086" Properties=species:S:1:pos:R:3:initial_magmoms:R:1 pbc="T T T"
Si      -1.45912788      -1.22228757      -1.39880548       0.00000000
Si       1.62315189       0.89585226      -1.47158019       0.00000000
Si       1.27241190      -1.42022736       1.40744284       0.00000000
Si      -1.43433450       1.31315710       1.40083571       0.00000000
Si      -1.97977257       0.49951656      -2.83422379       0.00000000
Si       2.65944024       2.53504395      -0.12130722       0.00000000
Si       3.36041523      -0.89124219      -1.38584561       0.00000000
Si       2.53876392      -2.76866469      -0.14961613       0.00000000
Si       2.62998792      -0.05372442       2.78051279       0.00000000
Si      -0.08436591       2.66067081       2.77824395       0.00000000
