10
Lattice="16.28999089631971 0.0 0.0 0.0 16.28999089631971 0.0 0.0 0.0 34.376317263855086" Properties=species:S:1:pos:R:3:initial_magmoms:R:1 pbc="T T T"
Si      -0.78211548      -1.69621254       1.46793832       0.00000000
Si      -2.10038373       1.03620690      -0.50045071       0.00000000
Si       1.81449423       1.48424706       0.84022642       0.00000000
Si      -0.84835062       1.87230159      -2.65182497       0.00000000
Si      -0.90427419      -2.84389191      -1.79155715       0.00000000
Si      -1.76454909       3.27991724       0.07139965       0.00000000
Si      -2.26181763      -2.98540314       0.16641584       0.00000000
Si       0.90741816      -3.27552804       1.71036024       0.00000000
Si       2.99498166       0.21719457       2.47836198       0.00000000
Si       2.53687428      -0.60665589      -2.94178937       0.00000000
