10
Lattice="16.28999089631971 0.0 0.0 0.0 16.28999089631971 0.0 0.0 0.0 34.376317263855086" Properties=species:S:1:pos:R:3:initial_magmoms:R:1 pbc="T T T"
Si       1.18048743      -1.26705249       1.63813556       0.00000000
Si      -0.31177431       2.07419660       1.29330653       0.00000000
Si      -1.81449423      -1.48424706      -0.84022642       0.00000000
Si       2.02973400       0.09819777      -1.58395846       0.00000000
Si      -1.80788049       2.24283068      -2.29228287       0.00000000
Si       0.04502556      -0.80931978       3.65255450       0.00000000
Si      -2.62392804       2.42286776       1.28911262       0.00000000
Si       0.28494468       1.54838961       3.57190762       0.00000000
Si       1.18667763      -3.57436809       1.07446677       0.00000000
Si       2.86027965       2.48589377      -1.05494101       0.00000000
