10
Lattice="16.28999089631971 0.0 0.0 0.0 16.28999089631971 0.0 0.0 0.0 34.376317263855086" Properties=species:S:1:pos:R:3:initial_magmoms:R:1 pbc="T T T"
Si      -0.94377744      -1.89223011      -1.02884937       0.00000000
Si       2.34141057       0.15664464      -0.26311648       0.00000000
Si      -1.02750804       1.98502351      -0.82853846       0.00000000
Si      -0.11012040      -0.77037039       2.31376808       0.00000000
Si       1.35681039      -2.53169406       1.83841210       0.00000000
Si       2.58132969       2.51435403      -0.34376336       0.00000000
Si      -0.03046230      -3.62058282       0.28666427       0.00000000
Si       3.27940506      -1.29373551       1.38966340       0.00000000
Si      -0.97858917       3.57004214       0.88030922       0.00000000
Si      -3.28258161       1.59412704      -1.13510663       0.00000000
