10
Lattice="16.28999089631971 0.0 0.0 0.0 16.28999089631971 0.0 0.0 0.0 34.376317263855086" Properties=species:S:1:pos:R:3:initial_magmoms:R:1 pbc="T T T"
Si      -0.06846687       1.98821798      -1.33112050       0.00000000
Si       1.00343142      -0.25202259       2.19211022       0.00000000
Si       1.17292887      -1.53357318      -1.57897389       0.00000000
Si      -2.59949304      -0.64835829       0.82946662       0.00000000
Si      -0.72987345       0.89958660      -3.33240768       0.00000000
Si      -0.41704029      -3.27476241      -1.50650857       0.00000000
Si       3.01179294      -2.22917247      -0.06992147       0.00000000
Si      -2.60193654      -0.56363400      -2.65694705       0.00000000
Si      -2.43885735       2.90197295      -0.26961361       0.00000000
Si      -2.07884835      -2.37016242       2.26488493       0.00000000
