10
Lattice="16.28999089631971 0.0 0.0 0.0 16.28999089631971 0.0 0.0 0.0 34.376317263855086" Properties=species:S:1:pos:R:3:initial_magmoms:R:1 pbc="T T T"
Si       0.27109818      -0.19005543      -2.34776628       0.00000000
Si      -0.82165131      -1.87742250       1.23622948       0.00000000
Si       1.86186555       0.84932802       1.38785318       0.00000000
Si      -1.73726334       1.78709445      -0.08573458       0.00000000
Si      -2.08800333      -0.52898517       2.79328845       0.00000000
Si       2.16000513       1.23385347      -2.55423055       0.00000000
Si       0.61587603       2.20046949       2.80926657       0.00000000
Si       2.73093705       2.51212067      -0.22348056       0.00000000
Si      -0.70097499       3.42628614       1.26453839       0.00000000
Si      -3.36041523       0.89124219       1.38584561       0.00000000
