10
Lattice="16.28999089631971 0.0 0.0 0.0 16.28999089631971 0.0 0.0 0.0 34.376317263855086" Properties=species:S:1:pos:R:3:initial_magmoms:R:1 pbc="T T T"
Si       1.03628835       1.63919169       1.35027297       0.00000000
Si      -1.62315189      -0.89585226       1.47158019       0.00000000
Si      -1.00343142       0.25202259      -2.19211022       0.00000000
Si       1.73726334      -1.78709445       0.08573458       0.00000000
Si       2.00836152      -1.97714988      -2.26203169       0.00000000
Si      -0.35073999      -2.31607962       2.87902303       0.00000000
Si      -3.08227977      -2.11813983       0.07277470       0.00000000
Si       2.72176578       2.57931692      -0.00319700       0.00000000
Si       2.35313937       0.41337504       2.89500115       0.00000000
Si      -3.60292446      -0.39633570      -1.36264360       0.00000000
