10
Lattice="16.28999089631971 0.0 0.0 0.0 16.28999089631971 0.0 0.0 0.0 34.376317263855086" Properties=species:S:1:pos:R:3:initial_magmoms:R:1 pbc="T T T"
Si       0.86535738      -2.12339661       0.80447503       0.00000000
Si       1.77539823       0.58086882      -1.63435417       0.00000000
Si       0.46503063       1.48338369       2.00499982       0.00000000
Si      -2.05835553       1.54953738      -0.10519159       0.00000000
Si      -0.80778852      -2.18254139      -1.25002672       0.00000000
Si       0.50544612       1.97987031      -2.99510707       0.00000000
Si       1.82087991       3.10420611       0.90052251       0.00000000
Si      -0.99763218       3.18537918      -1.65549561       0.00000000
Si      -2.20105593      -0.75226568      -2.95887441       0.00000000
Si       3.28792473       1.82560401      -0.30691193       0.00000000
