10
Lattice="16.28999089631971 0.0 0.0 0.0 16.28999089631971 0.0 0.0 0.0 34.376317263855086" Properties=species:S:1:pos:R:3:initial_magmoms:R:1 pbc="T T T"
Si      -1.26995211       1.39900149      -1.36075290       0.00000000
Si       1.51252650       1.24473519       1.32744223       0.00000000
Si       1.44052470      -1.32380033      -1.34713987       0.00000000
Si      -1.77539823      -0.58086882       1.63435417       0.00000000
Si       0.04548168       2.52333729       2.53487668       0.00000000
Si      -0.91004085      -2.70426543       2.43882919       0.00000000
Si      -2.62119132       0.03717378      -2.70895844       0.00000000
Si       2.67574653      -2.69614585       0.08233133       0.00000000
Si      -2.58318675      -2.76341021       0.38432744       0.00000000
Si      -2.77303041       2.60451036      -0.02114145       0.00000000
