10
Lattice="16.28999089631971 0.0 0.0 0.0 16.28999089631971 0.0 0.0 0.0 34.376317263855086" Properties=species:S:1:pos:R:3:initial_magmoms:R:1 pbc="T T T"
Si       0.14871141      -0.05117275      -2.45220159       0.00000000
Si      -2.02973400      -0.09819777       1.58395846       0.00000000
Si       0.83054565       2.38769600       0.52901744       0.00000000
Si       1.71725922      -2.05234617      -0.04262666       0.00000000
Si      -1.30735395      -2.18910072      -2.19805733       0.00000000
Si      -0.84924657      -1.36525026       3.22209402       0.00000000
Si       3.13191540       1.88814686       0.31543726       0.00000000
Si      -0.25161534       3.55560755      -1.25167679       0.00000000
Si       2.81541699      -1.57291518       1.97657059       0.00000000
Si      -0.71664597       2.07222386      -3.25667661       0.00000000
