10
Lattice="16.28999089631971 0.0 0.0 0.0 16.28999089631971 0.0 0.0 0.0 34.376317263855086" Properties=species:S:1:pos:R:3:initial_magmoms:R:1 pbc="T T T"
Si      -1.68547743      -0.94012522       1.35346997       0.00000000
Si      -0.21092292       0.39900726      -2.47557749       0.00000000
Si       1.02996783       1.83573639       1.40833460       0.00000000
Si       1.74643461      -1.85429070      -0.13454898       0.00000000
Si       1.61500689       1.90030995      -2.06866480       0.00000000
Si      -0.36862641      -2.16594188       2.89819815       0.00000000
Si       3.03290478       0.00785178      -2.09819407       0.00000000
Si      -2.72176578      -2.57931692       0.00319700       0.00000000
Si       2.35087506       0.53908497       2.88785775       0.00000000
Si       0.87736311      -3.51708335       1.47678477       0.00000000
