10
Lattice="16.28999089631971 0.0 0.0 0.0 16.28999089631971 0.0 0.0 0.0 34.376317263855086" Properties=species:S:1:pos:R:3:initial_magmoms:R:1 pbc="T T T"
Si       1.35273789       1.34087877      -1.36722597       0.00000000
Si       1.35353610      -1.35435060       1.35817468       0.00000000
Si      -1.35971001       1.35840681       1.35844969       0.00000000
Si      -1.35532800      -1.34599383      -1.39831936       0.00000000
Si      -0.06507855       2.66874183      -2.73640451       0.00000000
Si       2.71220355      -2.71608057      -0.00099691       0.00000000
Si       2.71215468       0.00153126       2.71665874       0.00000000
Si       2.71187775       2.71722087      -0.00391890       0.00000000
Si      -0.00293220      -2.71337643       2.71631498       0.00000000
Si      -2.71735119      -2.71288773      -0.00498457       0.00000000
