10
Lattice="16.28999089631971 0.0 0.0 0.0 16.28999089631971 0.0 0.0 0.0 34.376317263855086" Properties=species:S:1:pos:R:3:initial_magmoms:R:1 pbc="T T T"
Si       1.10691364       1.37694744       1.50035318       0.00000000
Si       1.92060729      -0.83751095      -1.34903057       0.00000000
Si      -1.63290050      -1.34595443       1.34384116       0.00000000
Si      -0.85829471       1.51473314      -1.81476118       0.00000000
Si      -1.78969175      -0.59993759      -2.53006399       0.00000000
Si       2.44125198      -2.55931508       0.08638773       0.00000000
Si       0.28712102      -1.50215924      -3.21490936       0.00000000
Si       2.09147310       2.95563903       0.04499862       0.00000000
Si       2.46604536      -0.02387040       2.88602893       0.00000000
Si      -0.26768391       2.68371006       2.89998228       0.00000000
