10
Lattice="16.28999089631971 0.0 0.0 0.0 16.28999089631971 0.0 0.0 0.0 34.376317263855086" Properties=species:S:1:pos:R:3:initial_magmoms:R:1 pbc="T T T"
Si      -0.14468778       1.57503123       1.64941100       0.00000000
Si      -0.59851089       1.00105308      -2.06993672       0.00000000
Si       2.28066516      -0.33427080      -0.63981237       0.00000000
Si      -1.19874852      -2.11421394       0.30319929       0.00000000
Si       1.58734647      -1.94683419      -2.15422750       0.00000000
Si      -2.47264281       2.25214137       1.19303076       0.00000000
Si       0.29297565      -0.56426931      -3.55681641       0.00000000
Si       1.71823662       2.98958967       1.23555429       0.00000000
Si       0.23149719      -3.56765661      -1.04975019       0.00000000
Si      -0.10722078       0.64024587       3.84856837       0.00000000
