10
Lattice="16.28999089631971 0.0 0.0 0.0 16.28999089631971 0.0 0.0 0.0 34.376317263855086" Properties=species:S:1:pos:R:3:initial_magmoms:R:1 pbc="T T T"
Si      -1.53210708      -1.75361850       0.07150278       0.00000000
Si       2.14747812      -0.92523942       0.22330868       0.00000000
Si      -0.40223268       1.09600749       2.05529241       0.00000000
Si      -0.16882956       1.16053218      -2.05350484       0.00000000
Si       0.61504524      -0.58798755      -3.39421633       0.00000000
Si      -1.61526753      -2.27519172       2.34642560       0.00000000
Si       2.60983719      -1.22499171      -2.23941206       0.00000000
Si      -3.70089252      -0.86804523      -0.44355787       0.00000000
Si       1.42451163       2.92415274      -2.09155944       0.00000000
Si      -1.93308543      -0.21566331       3.34928646       0.00000000
