10
Lattice="16.28999089631971 0.0 0.0 0.0 16.28999089631971 0.0 0.0 0.0 34.376317263855086" Properties=species:S:1:pos:R:3:initial_magmoms:R:1 pbc="T T T"
Si       1.32339960      -1.37661903       1.28615625       0.00000000
Si      -1.32760242      -1.36495539      -1.34676173       0.00000000
Si       1.38745188       1.34710155      -1.34518042       0.00000000
Si      -1.41876126       1.21567383       1.50183339       0.00000000
Si       2.14472511       0.35820081       2.62755528       0.00000000
Si       0.28898460       2.16316539       2.92738569       0.00000000
Si      -2.68729614      -0.01146816      -2.70593333       0.00000000
Si      -2.69535969       2.70457983       0.04651118       0.00000000
Si       0.02854008       2.70340695      -2.70442077       0.00000000
Si       0.02766042      -2.72666907      -2.70600208       0.00000000
