10
Lattice="16.28999089631971 0.0 0.0 0.0 16.28999089631971 0.0 0.0 0.0 34.376317263855086" Properties=species:S:1:pos:R:3:initial_magmoms:R:1 pbc="T T T"
Si       0.80283636       0.48824388       2.11861362       0.00000000
Si       2.09846151      -0.55276857      -0.94383669       0.00000000
Si      -1.86292440      -1.41455844       0.41385671       0.00000000
Si      -0.79355106       2.20908690      -0.37597399       0.00000000
Si       3.10648671       1.57164291      -0.56896274       0.00000000
Si       2.16847593       2.34206217       1.51647771       0.00000000
Si      -2.07818046       2.50457121       1.62479754       0.00000000
Si      -2.28581280       1.88110404      -2.15010234       0.00000000
Si      -1.71823662      -2.98958967      -1.23555429       0.00000000
Si      -1.03679334       1.26991953       3.32034159       0.00000000
