10
Lattice="16.28999089631971 0.0 0.0 0.0 16.28999089631971 0.0 0.0 0.0 34.376317263855086" Properties=species:S:1:pos:R:3:initial_magmoms:R:1 pbc="T T T"
Si      -1.35736425       1.35172791      -1.36212796       0.00000000
Si       1.36029645      -1.36190916      -1.36020288       0.00000000
Si       1.34500014       1.35247725       1.38650078       0.00000000
Si      -1.36360332      -1.36073628       1.39072907       0.00000000
Si       2.52866412      -0.16057053       2.80297772       0.00000000
Si      -2.70868491       2.71313417       0.00068753       0.00000000
Si       0.00255753       2.71143477      -2.71765566       0.00000000
Si      -2.71223613      -0.00356751      -2.71830881       0.00000000
Si      -2.71111212      -2.71956663      -0.00147818       0.00000000
Si       2.72029968       2.71187775       0.00010313       0.00000000
