10
Lattice="16.28999089631971 0.0 0.0 0.0 16.28999089631971 0.0 0.0 0.0 34.376317263855086" Properties=species:S:1:pos:R:3:initial_magmoms:R:1 pbc="T T T"
Si       1.04138712      -1.23465168       1.69554404       0.00000000
Si      -0.00619020       2.30731560       0.56366879       0.00000000
Si       1.28462940      -0.29548431      -2.00077154       0.00000000
Si      -2.09375370      -1.18540701      -0.20433294       0.00000000
Si       2.88101682      -2.01632733       0.49381607       0.00000000
Si       2.07818046      -2.50457121      -1.62479754       0.00000000
Si      -3.78328734       0.39390849      -0.44675487       0.00000000
Si      -0.20763234      -0.62346717      -3.77489988       0.00000000
Si      -0.39004776      -3.01953069       2.34216293       0.00000000
Si       1.69134183       0.11499111       3.48139472       0.00000000
