10
Lattice="16.28999089631971 0.0 0.0 0.0 16.28999089631971 0.0 0.0 0.0 34.376317263855086" Properties=species:S:1:pos:R:3:initial_magmoms:R:1 pbc="T T T"
Si       1.37451762      -0.90438822      -1.67674019       0.00000000
Si       0.20548206       2.38140971       0.29367704       0.00000000
Si      -2.29014594      -0.69672330      -0.43121676       0.00000000
Si       0.78354900      -0.96959709       2.09757530       0.00000000
Si      -0.98679933       2.52033083       2.26000349       0.00000000
Si       0.01115865       0.72736823       3.63832270       0.00000000
Si      -3.42560781      -0.23899059       1.58320218       0.00000000
Si       2.96513838       0.81097714      -2.22060821       0.00000000
Si      -0.59261391      -2.88904779       2.48650917       0.00000000
Si       1.96270065      -3.16654794      -1.10320539       0.00000000
