10
Lattice="16.28999089631971 0.0 0.0 0.0 16.28999089631971 0.0 0.0 0.0 34.376317263855086" Properties=species:S:1:pos:R:3:initial_magmoms:R:1 pbc="T T T"
Si      -1.35650156      -1.35783666       1.35666212       0.00000000
Si      -1.35765815       1.35799956      -1.35590584       0.00000000
Si       1.35833349       1.35703845       1.35683400       0.00000000
Si       1.35657417      -1.35669636      -1.36171544       0.00000000
Si      -0.00353561       2.70233181      -2.71820224       0.00000000
Si      -2.71270922       2.71376739      -0.00096254       0.00000000
Si       0.00139135       2.71409319       2.71414927       0.00000000
Si      -2.71435451      -0.00022806       2.71414927       0.00000000
Si      -2.71358888      -2.71521720       0.00010313       0.00000000
Si      -2.70195782       0.01282023      -2.72682039       0.00000000
