10
Lattice="16.28999089631971 0.0 0.0 0.0 16.28999089631971 0.0 0.0 0.0 34.376317263855086" Properties=species:S:1:pos:R:3:initial_magmoms:R:1 pbc="T T T"
Si      -1.35747828      -1.35521675      -1.35755590       0.00000000
Si       1.36102950      -1.35384750       1.35759028       0.00000000
Si       1.35808580       1.35957317      -1.35769341       0.00000000
Si      -1.35993807       1.36182119       1.36020288       0.00000000
Si       2.71338850      -2.71381367      -0.00065315       0.00000000
Si       0.00048870      -2.71298288      -2.71535244       0.00000000
Si      -2.71503801      -2.71497026      -0.00120317       0.00000000
Si      -2.71489140       0.00230178      -2.71531807       0.00000000
Si       2.71548177       0.00231481      -2.71497430       0.00000000
Si       2.71410363       2.71703516      -0.00085941       0.00000000
