10
Lattice="16.28999089631971 0.0 0.0 0.0 16.28999089631971 0.0 0.0 0.0 34.376317263855086" Properties=species:S:1:pos:R:3:initial_magmoms:R:1 pbc="T T T"
Si      -1.32400233       0.25756119       1.91300875       0.00000000
Si       0.77496417       2.17839654      -0.48780021       0.00000000
Si       1.40427035      -1.79481591       0.67071670       0.00000000
Si      -2.01994371      -1.17577962      -0.61946158       0.00000000
Si       2.52259514      -0.33387984      -2.00132156       0.00000000
Si      -0.63594531      -2.53871505      -1.92803121       0.00000000
Si      -2.59822242      -1.76871933       1.74721168       0.00000000
Si       0.76458744      -1.12210407      -3.37665003       0.00000000
Si       0.12372255       0.50624433       3.78022822       0.00000000
Si      -3.15885906       0.24096168      -2.13181413       0.00000000
