10
Lattice="16.28999089631971 0.0 0.0 0.0 16.28999089631971 0.0 0.0 0.0 34.376317263855086" Properties=species:S:1:pos:R:3:initial_magmoms:R:1 pbc="T T T"
Si       0.92737341       0.84784400       2.00183720       0.00000000
Si       1.87196535      -0.34216723      -1.46075367       0.00000000
Si      -1.59062076      -1.71536536       0.54386802       0.00000000
Si      -1.27412235       1.74569667      -1.11726531       0.00000000
Si      -2.68877853      -2.19479635      -1.47532923       0.00000000
Si      -2.96513838      -0.81097714       2.22060821       0.00000000
Si       1.55896929      -0.90760942       3.37757819       0.00000000
Si      -0.56956356       2.22183708       3.10067680       0.00000000
Si       0.00009774       3.77197719      -0.95146824       0.00000000
Si       2.72837042       1.71960009      -2.19376029       0.00000000
