10
Lattice="16.28999089631971 0.0 0.0 0.0 16.28999089631971 0.0 0.0 0.0 34.376317263855086" Properties=species:S:1:pos:R:3:initial_magmoms:R:1 pbc="T T T"
Si       1.32400233      -0.25756119      -1.91300875       0.00000000
Si       1.44772488       0.24868314       1.86721947       0.00000000
Si      -1.22704425       1.99876671       0.41024720       0.00000000
Si      -1.27422009      -2.02628052      -0.16579707       0.00000000
Si      -0.69594138      -1.43334081      -2.53247033       0.00000000
Si      -2.04605658       1.41926625       2.52208868       0.00000000
Si       2.72827268      -2.05237710      -1.24229205       0.00000000
Si       2.09896650       1.92083535      -2.40080896       0.00000000
Si      -0.05126463       0.78226209       3.67689295       0.00000000
Si       2.87357133       2.08192716       1.31090722       0.00000000
