10
Lattice="16.28999089631971 0.0 0.0 0.0 16.28999089631971 0.0 0.0 0.0 34.376317263855086" Properties=species:S:1:pos:R:3:initial_magmoms:R:1 pbc="T T T"
Si      -1.96436223       0.55087893       1.15116038       0.00000000
Si       0.78916809      -1.28849013       1.80345136       0.00000000
Si       1.14792765       2.07552519       0.16270320       0.00000000
Si       0.01456326      -1.44958194      -1.90826481       0.00000000
Si      -1.58426766      -0.18298557      -3.30858488       0.00000000
Si      -3.31144749      -1.37165058       0.90279135       0.00000000
Si      -1.19355201       1.29508758       3.26441129       0.00000000
Si       0.87797628       0.15294681       3.65712656       0.00000000
Si       0.57759520       3.24765585      -2.03559476       0.00000000
Si      -3.15695313       2.27524059       0.10110081       0.00000000
