10
Lattice="16.28999089631971 0.0 0.0 0.0 16.28999089631971 0.0 0.0 0.0 34.376317263855086" Properties=species:S:1:pos:R:3:initial_magmoms:R:1 pbc="T T T"
Si      -0.81901233      -0.57950046       2.11184148       0.00000000
Si       1.34708526       1.92252951       0.24836903       0.00000000
Si       1.22704425      -1.99876671      -0.41024720       0.00000000
Si      -1.38153861       0.87579927      -1.73322051       0.00000000
Si       2.67476913      -1.75008357       1.45697227       0.00000000
Si       1.17577962      -1.21650462       3.26664575       0.00000000
Si       3.31144749       1.37165058      -0.90279135       0.00000000
Si       0.15449436       3.64689117      -0.80169054       0.00000000
Si      -2.35985085      -2.39855589       1.73634876       0.00000000
Si      -2.07485730      -0.73676412      -3.24763564       0.00000000
