10
Lattice="16.28999089631971 0.0 0.0 0.0 16.28999089631971 0.0 0.0 0.0 34.376317263855086" Properties=species:S:1:pos:R:3:initial_magmoms:R:1 pbc="T T T"
Si      -1.06903125       0.83903274      -1.88512954       0.00000000
Si       1.37930688      -1.49418396      -1.28388741       0.00000000
Si      -1.21836168      -1.40960628       1.80142316       0.00000000
Si       0.74772729       1.98711936       1.70558193       0.00000000
Si      -0.37600578       0.42023313       3.15555660       0.00000000
Si      -2.51260218      -2.26580868      -0.35304498       0.00000000
Si      -3.04056108      -0.42798717      -1.88598895       0.00000000
Si       3.38164110      -0.26296947      -1.35532144       0.00000000
Si       1.10249091      -3.53014074      -0.16421576       0.00000000
Si       0.53507763      -3.22476840       2.08230434       0.00000000
