10
Lattice="16.28999089631971 0.0 0.0 0.0 16.28999089631971 0.0 0.0 0.0 34.376317263855086" Properties=species:S:1:pos:R:3:initial_magmoms:R:1 pbc="T T T"
Si       1.35181818      -1.36041048      -1.35965286       0.00000000
Si       1.35903139       1.33745787       1.37629101       0.00000000
Si      -1.36125756       1.35545832      -1.35992787       0.00000000
Si      -1.36231641      -1.35713619       1.36226546       0.00000000
Si      -0.19574064       2.52302778       2.72535596       0.00000000
Si       2.71128221       2.71485882       0.00182195       0.00000000
Si       2.71278089      -2.71376739       0.00257823       0.00000000
Si       2.71217816      -0.00154755      -2.71707126       0.00000000
Si      -0.00218879       2.71357191      -2.71686500       0.00000000
Si      -0.00209402      -2.71684620      -2.71727752       0.00000000
