10
Lattice="16.28999089631971 0.0 0.0 0.0 16.28999089631971 0.0 0.0 0.0 34.376317263855086" Properties=species:S:1:pos:R:3:initial_magmoms:R:1 pbc="T T T"
Si      -1.16644545       1.38095217      -1.53679412       0.00000000
Si      -1.27873242      -1.67819580       1.24820478       0.00000000
Si       0.25730055       1.09289610       2.17973474       0.00000000
Si       1.82998602      -1.36533006      -1.22995094       0.00000000
Si      -1.98777096      -0.35386767      -2.87819315       0.00000000
Si       1.44989145      -0.63146556       3.22979432       0.00000000
Si       0.72324342       2.28470508      -2.72803731       0.00000000
Si      -1.97205111      -3.29075919      -0.26621035       0.00000000
Si       0.10280619      -2.55399507       2.98142529       0.00000000
Si      -1.84116096       1.64566467       3.12357144       0.00000000
