10
Lattice="16.28999089631971 0.0 0.0 0.0 16.28999089631971 0.0 0.0 0.0 34.376317263855086" Properties=species:S:1:pos:R:3:initial_magmoms:R:1 pbc="T T T"
Si      -1.35158130      -1.35443205       1.37925768       0.00000000
Si       1.36197432       1.36214766       1.38224843       0.00000000
Si      -1.49112144       1.27079823      -1.39532175       0.00000000
Si       1.34368065      -1.30953681      -1.53793198       0.00000000
Si       2.70668124      -2.70629028      -0.00572022       0.00000000
Si       2.70889724       2.72012768       0.01820915       0.00000000
Si      -2.71723716       2.71364426       0.01650064       0.00000000
Si      -2.72002275      -2.71832859       0.00161569       0.00000000
Si      -2.71265967       0.00365424       2.74076687       0.00000000
Si       0.00403992      -2.71283886       2.74107625       0.00000000
