10
Lattice="16.28999089631971 0.0 0.0 0.0 16.28999089631971 0.0 0.0 0.0 34.376317263855086" Properties=species:S:1:pos:R:3:initial_magmoms:R:1 pbc="T T T"
Si      -1.34382726      -1.35654975      -1.37340339       0.00000000
Si       1.37676564       1.35678962      -1.37405655       0.00000000
Si       1.18053630      -1.55038446       1.35315573       0.00000000
Si      -1.47281148       1.33544086       1.41867703       0.00000000
Si       2.42215263      -0.37616868       2.88805916       0.00000000
Si      -0.11311776       2.49664517       2.86757086       0.00000000
Si      -2.69715159      -2.71616202       0.00632525       0.00000000
Si       2.72477033       2.68914573       0.00041252       0.00000000
Si      -2.70803331       2.70778637      -0.01079417       0.00000000
Si      -2.69930187      -0.00433314      -2.73285000       0.00000000
