10
Lattice="16.28999089631971 0.0 0.0 0.0 16.28999089631971 0.0 0.0 0.0 34.376317263855086" Properties=species:S:1:pos:R:3:initial_magmoms:R:1 pbc="T T T"
Si       0.62328798       0.76628160       2.16821867       0.00000000
Si       1.97474778      -0.78866406      -1.14304756       0.00000000
Si      -0.56052261       2.08414979      -1.16353586       0.00000000
Si      -2.08715625      -1.56053313       0.23176526       0.00000000
Si      -1.92021633       0.92294548      -2.61242969       0.00000000
Si       0.73313145      -1.96287984      -2.67795099       0.00000000
Si       1.47969305       2.82804893       1.43521205       0.00000000
Si      -0.57122514      -3.33172854      -1.08292335       0.00000000
Si       2.57991965      -2.68307703       0.15465914       0.00000000
Si      -3.55001454      -0.30985209      -1.30196937       0.00000000
