10
Lattice="16.28999089631971 0.0 0.0 0.0 16.28999089631971 0.0 0.0 0.0 34.376317263855086" Properties=species:S:1:pos:R:3:initial_magmoms:R:1 pbc="T T T"
Si       0.85640507       2.06176733      -0.73300662       0.00000000
Si      -0.62328798      -0.76628160      -2.16821867       0.00000000
Si      -1.87196535       0.34216723       1.46075367       0.00000000
Si       1.84969270      -1.13640669       1.07230106       0.00000000
Si       2.23551647       2.75321267       1.12833449       0.00000000
Si      -1.18381059       1.31786819      -3.33175453       0.00000000
Si      -0.94459194       1.19001123       3.46259087       0.00000000
Si      -3.14608770       2.08786391       0.34348835       0.00000000
Si       1.85851374      -3.35083671       0.34654785       0.00000000
Si       1.35145980      -1.55494566      -3.31126623       0.00000000
