10
Lattice="16.28999089631971 0.0 0.0 0.0 16.28999089631971 0.0 0.0 0.0 34.376317263855086" Properties=species:S:1:pos:R:3:initial_magmoms:R:1 pbc="T T T"
Si      -1.53942129      -1.40945967       1.04916579       0.00000000
Si       1.56909257      -1.49400477      -1.00839545       0.00000000
Si      -1.16010864       0.80187525      -1.95226652       0.00000000
Si       1.09776748       1.91526417       1.03445272       0.00000000
Si       3.20154605       0.30801132      -1.06601019       0.00000000
Si      -0.97904529       2.81748582       1.71929809       0.00000000
Si      -2.69483841      -2.40808554      -0.72458442       0.00000000
Si      -1.41275025       3.13952283      -1.64040440       0.00000000
Si       2.72881025       2.66463675      -0.58608216       0.00000000
Si      -3.17606130      -0.56692458      -2.13855189       0.00000000
