10
Lattice="16.28999089631971 0.0 0.0 0.0 16.28999089631971 0.0 0.0 0.0 34.376317263855086" Properties=species:S:1:pos:R:3:initial_magmoms:R:1 pbc="T T T"
Si      -0.93850504       1.29984426       1.73253298       0.00000000
Si       2.17572661       0.92033613      -0.22495875       0.00000000
Si      -1.35658789       0.13064580      -1.95477600       0.00000000
Si      -0.26266811      -2.26202940       0.85291128       0.00000000
Si       0.95714501       0.35230383       2.82686928       0.00000000
Si      -2.94083926       0.06862977       1.80396701       0.00000000
Si       1.67818114      -2.02862628       2.34494742       0.00000000
Si      -3.46914025      -0.19862397      -0.75992329       0.00000000
Si       2.84211793       1.47404952       1.98781166       0.00000000
Si       3.28417966      -0.30172338      -1.90819606       0.00000000
