10
Lattice="16.28999089631971 0.0 0.0 0.0 16.28999089631971 0.0 0.0 0.0 34.376317263855086" Properties=species:S:1:pos:R:3:initial_magmoms:R:1 pbc="T T T"
Si       1.10845305      -1.22205951      -1.68323732       0.00000000
Si      -2.17572661      -0.92033613       0.22495875       0.00000000
Si       0.66639132       0.55371339       2.21277040       0.00000000
Si      -0.31371282       2.17824993      -1.00650476       0.00000000
Si      -1.21858160      -0.56803230       3.05182802       0.00000000
Si       0.60111729       0.24324228      -3.59232716       0.00000000
Si      -3.11423165       0.37950813       1.95749173       0.00000000
Si      -1.21905563       3.52882125       0.72262497       0.00000000
Si       3.41376498      -1.45702647      -0.94593365       0.00000000
Si      -1.21007496       1.82729817      -3.19748056       0.00000000
