10
Lattice="16.28999089631971 0.0 0.0 0.0 16.28999089631971 0.0 0.0 0.0 34.376317263855086" Properties=species:S:1:pos:R:3:initial_magmoms:R:1 pbc="T T T"
Si      -1.88497291      -1.12174569       0.83905762       0.00000000
Si       2.15974449      -0.81135603       0.44933309       0.00000000
Si      -0.66639132      -0.55371339      -2.21277040       0.00000000
Si      -0.32335650       2.30340600       0.65521297       0.00000000
Si       2.13066684      -0.95871537       2.83525710       0.00000000
Si      -1.16393679      -3.50267580       0.35713576       0.00000000
Si      -0.98010414       1.62453654      -3.21927516       0.00000000
Si      -2.84211793      -1.47404952      -1.98781166       0.00000000
Si      -3.78062297      -0.17420526      -0.25527867       0.00000000
Si      -1.88544695       2.97510786      -1.49014543       0.00000000
