10
Lattice="16.28999089631971 0.0 0.0 0.0 16.28999089631971 0.0 0.0 0.0 34.376317263855086" Properties=species:S:1:pos:R:3:initial_magmoms:R:1 pbc="T T T"
Si       1.35391220       1.35643572       1.35762466       0.00000000
Si       1.35694214      -1.35705474      -1.35731527       0.00000000
Si      -1.35813727       1.35808101      -1.35707464       0.00000000
Si      -1.35828388      -1.35852084       1.35734965       0.00000000
Si       0.00323432      -2.71379997       2.71294610       0.00000000
Si      -0.00139135      -2.71409319      -2.71414927       0.00000000
Si       2.71410928      -2.71454931       0.00000000       0.00000000
Si      -2.71410058      -0.00032580      -2.71511181       0.00000000
Si       2.71427218       2.71529865       0.00020626       0.00000000
Si      -0.00148978       2.71546155      -2.71435553       0.00000000
