10
Lattice="16.28999089631971 0.0 0.0 0.0 16.28999089631971 0.0 0.0 0.0 34.376317263855086" Properties=species:S:1:pos:R:3:initial_magmoms:R:1 pbc="T T T"
Si      -1.35391220      -1.35643572      -1.35762466       0.00000000
Si      -1.35181818       1.36041048       1.35965286       0.00000000
Si       1.36096271      -1.35335691       1.36223109       0.00000000
Si       1.36035998       1.35886293      -1.35741840       0.00000000
Si      -2.71204947       0.00164529      -2.71469929       0.00000000
Si      -2.71219608      -2.71495656      -0.00027501       0.00000000
Si       0.00302994      -2.71349046      -2.71493993       0.00000000
Si      -2.71307574       2.71586880      -0.00027501       0.00000000
Si       0.00318632       2.71640637      -2.71487117       0.00000000
Si       2.71695860       2.71494027       0.00024063       0.00000000
