10
Lattice="16.28999089631971 0.0 0.0 0.0 16.28999089631971 0.0 0.0 0.0 34.376317263855086" Properties=species:S:1:pos:R:3:initial_magmoms:R:1 pbc="T T T"
Si       1.30860828      -1.23326703      -1.46993215       0.00000000
Si       0.92059677       1.54351008       1.51231817       0.00000000
Si      -1.13265999      -1.73776833       1.25501129       0.00000000
Si      -1.42034302       1.46958606      -1.45597536       0.00000000
Si      -1.12832685       1.93495878       2.72569972       0.00000000
Si      -2.29482769      -0.17345592       2.72040576       0.00000000
Si       2.47775787      -2.72362284       0.02880737       0.00000000
Si       2.46625713       2.82421359       0.03045743       0.00000000
Si      -0.06659352      -2.58163920      -2.82968814       0.00000000
Si       2.64927528       0.12973356      -2.83267888       0.00000000
