10
Lattice="16.28999089631971 0.0 0.0 0.0 16.28999089631971 0.0 0.0 0.0 34.376317263855086" Properties=species:S:1:pos:R:3:initial_magmoms:R:1 pbc="T T T"
Si       1.47970215       1.28919060       1.30152248       0.00000000
Si      -2.04742820       1.01729421      -0.59165113       0.00000000
Si       1.35754344       0.14151123      -1.95797300       0.00000000
Si      -0.42994197      -2.32428978       0.38752444       0.00000000
Si       3.16923579      -0.29012490       1.54394440       0.00000000
Si      -2.54547866      -2.36177307      -0.75875450       0.00000000
Si      -1.94931027       0.91877229      -2.95175851       0.00000000
Si      -3.63958415      -0.49508568       0.23420598       0.00000000
Si       2.26181763       2.98540314      -0.16641584       0.00000000
Si      -2.05624923       3.23172423       0.13410209       0.00000000
