10
Lattice="16.28999089631971 0.0 0.0 0.0 16.28999089631971 0.0 0.0 0.0 34.376317263855086" Properties=species:S:1:pos:R:3:initial_magmoms:R:1 pbc="T T T"
Si       1.03139646       0.61441386      -2.02294427       0.00000000
Si       0.45138613      -2.27458899       0.47834672       0.00000000
Si       0.01218166       1.54347491       1.79771052       0.00000000
Si      -1.68488677      -0.68071023      -1.57718632       0.00000000
Si       0.14642918      -1.37643984      -2.97809078       0.00000000
Si      -1.23520132       3.28617260       0.94679306       0.00000000
Si       1.05547308      -3.12207624      -1.67780585       0.00000000
Si      -1.64950489      -3.15517752       1.17604885       0.00000000
Si       2.25474288       2.28153572       2.09499707       0.00000000
Si       3.28647003       1.00531033      -1.71637610       0.00000000
