10
Lattice="16.28999089631971 0.0 0.0 0.0 16.28999089631971 0.0 0.0 0.0 34.63643526849801" Properties=species:S:1:pos:R:3:initial_magmoms:R:1 pbc="T T T"
Si      -1.37354022       1.35690813       1.42175719       0.00000000
Si       1.37192751      -1.52503722       1.28653647       0.00000000
Si      -1.88346609      -1.31263191      -0.83414974       0.00000000
Si       0.52009083       0.82526769      -2.28115690       0.00000000
Si      -1.18742697      -0.67678434      -2.94593438       0.00000000
Si       0.01200573       2.64878658       2.77775850       0.00000000
Si       2.75947713      -0.10021608       2.69950435       0.00000000
Si      -2.69651302      -0.10823076       2.83951876       0.00000000
Si       2.07122463      -3.33822825      -0.16389970       0.00000000
Si      -2.71357680       2.92550481       0.13785309       0.00000000
