10
Lattice="16.28999089631971 0.0 0.0 0.0 16.28999089631971 0.0 0.0 0.0 34.63643526849801" Properties=species:S:1:pos:R:3:initial_magmoms:R:1 pbc="T T T"
Si       1.82831304       1.38675860      -0.67319413       0.00000000
Si      -1.64850143      -0.51836409      -1.69486563       0.00000000
Si       1.34003658      -1.56859668       1.28390410       0.00000000
Si      -1.62751991       1.20603571       1.49995699       0.00000000
Si       0.11431507       2.37849054       2.68967799       0.00000000
Si      -3.21569717       1.23518503      -1.12589259       0.00000000
Si       1.91701209       2.98744658       1.02333405       0.00000000
Si       2.72558253      -0.27671823       2.63990541       0.00000000
Si      -2.74338491      -0.51280920       2.71095170       0.00000000
Si       2.71357680      -2.92550481      -0.13785309       0.00000000
