10
Lattice="16.28999089631971 0.0 0.0 0.0 16.28999089631971 0.0 0.0 0.0 34.63643526849801" Properties=species:S:1:pos:R:3:initial_magmoms:R:1 pbc="T T T"
Si      -0.79604343       0.47236439       2.14323454       0.00000000
Si       0.24928587       2.10711476      -1.01311630       0.00000000
Si      -1.73273472      -1.24493881      -1.03330935       0.00000000
Si       2.07151785      -1.22145352      -0.49259966       0.00000000
Si      -0.61753761      -0.94506924      -3.17955726       0.00000000
Si       0.97888239       0.96966551      -3.11786974       0.00000000
Si       2.55862143       2.22924089      -0.48996729       0.00000000
Si      -1.82237859      -1.69543455       2.36483858       0.00000000
Si      -1.58487039      -3.16371741       0.37566699       0.00000000
Si       3.00602628       0.42662207      -1.97839965       0.00000000
