10
Lattice="16.28999089631971 0.0 0.0 0.0 16.28999089631971 0.0 0.0 0.0 34.63643526849801" Properties=species:S:1:pos:R:3:initial_magmoms:R:1 pbc="T T T"
Si      -2.12804415      -0.12875616      -0.90269528       0.00000000
Si       1.02669354      -2.04306899       0.39637959       0.00000000
Si       0.98847720       0.70343478      -1.99460951       0.00000000
Si       0.05154156       1.80895563       1.60138184       0.00000000
Si      -2.29744386       2.21441373      -1.08824277       0.00000000
Si       3.21906690      -1.30953681      -0.16691307       0.00000000
Si       3.21976737       0.86216454      -1.28089073       0.00000000
Si      -0.46672479       2.46829338      -2.55301843       0.00000000
Si      -2.15811549       2.65572612       1.25432457       0.00000000
Si       0.60936003      -2.49875731       2.76360808       0.00000000
