10
Lattice="16.28999089631971 0.0 0.0 0.0 16.28999089631971 0.0 0.0 0.0 34.63643526849801" Properties=species:S:1:pos:R:3:initial_magmoms:R:1 pbc="T T T"
Si       1.33713207       1.42258941       1.34451790       0.00000000
Si      -1.25421597       1.43948214      -1.48534972       0.00000000
Si       1.46090349      -1.27581651      -1.48313299       0.00000000
Si      -1.60006896      -1.15321797       1.51274716       0.00000000
Si      -2.70914103      -2.60864802      -0.02670471       0.00000000
Si      -2.61550611       2.84491818      -0.08503250       0.00000000
Si      -2.60939736       0.08387721      -2.86911072       0.00000000
Si       0.10629225      -2.63116080      -2.86834872       0.00000000
Si       2.94389622      -2.56665240      -0.06106407       0.00000000
Si       2.77338879       2.76732891      -0.04031683       0.00000000
