10
Lattice="16.28999089631971 0.0 0.0 0.0 16.28999089631971 0.0 0.0 0.0 34.63643526849801" Properties=species:S:1:pos:R:3:initial_magmoms:R:1 pbc="T T T"
Si       1.79828568       1.18615635       1.00050863       0.00000000
Si      -2.02675293      -0.07051941       1.28265719       0.00000000
Si       1.03366566      -2.18935971      -0.35280693       0.00000000
Si       0.30128355      -0.02417436      -2.54927770       0.00000000
Si       3.47654664       0.21046680      -0.32222294       0.00000000
Si      -1.95924717      -2.33711001       2.29466512       0.00000000
Si      -3.74906531       1.12625802       0.04814467       0.00000000
Si       3.34300122      -2.06723358       0.17034208       0.00000000
Si       2.13521175       0.91992888       3.31637126       0.00000000
Si      -2.10217563       1.39768200       3.19285766       0.00000000
