10
Lattice="16.28999089631971 0.0 0.0 0.0 16.28999089631971 0.0 0.0 0.0 34.63643526849801" Properties=species:S:1:pos:R:3:initial_magmoms:R:1 pbc="T T T"
Si       0.67530684      -0.80084083      -2.13963235       0.00000000
Si      -2.16350978       0.90272664      -0.44414326       0.00000000
Si       1.76740473       1.40085855       0.77907777       0.00000000
Si       0.32945385      -1.76350327       1.57543914       0.00000000
Si       1.02664956       1.93732083       2.94063500       0.00000000
Si       2.77829697      -1.80344472      -1.88858732       0.00000000
Si       2.68865310      -2.25394046       1.50956060       0.00000000
Si      -1.31494525       2.34488034       2.79814062       0.00000000
Si      -2.52076577       2.91911913       0.76113609       0.00000000
Si       3.71498826      -0.08614152       1.28795657       0.00000000
