10
Lattice="16.28999089631971 0.0 0.0 0.0 16.28999089631971 0.0 0.0 0.0 34.63643526849801" Properties=species:S:1:pos:R:3:initial_magmoms:R:1 pbc="T T T"
Si      -1.83822876      -1.51044138      -0.40105551       0.00000000
Si       1.33863075      -1.94155623      -0.68781072       0.00000000
Si      -0.78545493       1.67288526      -1.63951658       0.00000000
Si       1.07970120       0.26885016       2.90340081       0.00000000
Si      -1.04397723      -0.54325521       3.23012649       0.00000000
Si      -2.83589352      -1.42659675       1.83652873       0.00000000
Si      -2.00671623       0.21377367      -3.17211042       0.00000000
Si      -2.85689133       2.40989373      -0.61122951       0.00000000
Si      -0.74513718      -3.52473246      -1.55160926       0.00000000
Si      -0.79667874       3.72995388       0.96254707       0.00000000
