10
Lattice="16.28999089631971 0.0 0.0 0.0 16.28999089631971 0.0 0.0 0.0 34.63643526849801" Properties=species:S:1:pos:R:3:initial_magmoms:R:1 pbc="T T T"
Si       1.28031255      -0.01746288       1.98480740       0.00000000
Si      -0.59041476       2.24057547      -0.47095187       0.00000000
Si      -1.86973362      -1.38000735       0.53437122       0.00000000
Si       1.68909381      -0.93177171      -1.45303391       0.00000000
Si      -0.80304813      -0.87596217       2.81248012       0.00000000
Si       2.38938462      -2.74641255      -0.11717513       0.00000000
Si      -3.55294674      -0.38187018      -0.88135922       0.00000000
Si       2.29399038       2.16130833       1.95162567       0.00000000
Si       1.18623780       3.58751412       0.34896228       0.00000000
Si      -1.43412273      -3.62274939      -0.09448825       0.00000000
