10
Lattice="16.28999089631971 0.0 0.0 0.0 16.28999089631971 0.0 0.0 0.0 34.63643526849801" Properties=species:S:1:pos:R:3:initial_magmoms:R:1 pbc="T T T"
Si       1.35821133       1.35668007       1.35691775       0.00000000
Si      -1.35744570      -1.35806472       1.35754120       0.00000000
Si       1.35826020      -1.35736425      -1.35747193       0.00000000
Si      -1.35775521       1.35799956      -1.35757584       0.00000000
Si       0.00110772      -2.71197549       2.71483995       0.00000000
Si      -2.71407690      -0.00026064      -2.71366231       0.00000000
Si       2.71422351      -0.00003258      -2.71414722       0.00000000
Si       2.71239903       0.00356751       2.71695277       0.00000000
Si      -0.00047241      -2.71474479      -2.71466677       0.00000000
Si      -2.71477737      -2.71497285       0.00010391       0.00000000
