10
Lattice="16.28999089631971 0.0 0.0 0.0 16.28999089631971 0.0 0.0 0.0 34.63643526849801" Properties=species:S:1:pos:R:3:initial_magmoms:R:1 pbc="T T T"
Si       1.32856353       0.70416783      -1.80410901       0.00000000
Si      -1.77665256      -1.34693865      -0.81991415       0.00000000
Si       1.10775258      -1.42620579       1.60266339       0.00000000
Si      -1.10848563       1.83726765       1.15664977       0.00000000
Si      -3.54041973      -0.29998035       0.34626064       0.00000000
Si      -2.98025550       1.97209998      -0.38924448       0.00000000
Si       0.05984946       2.52441243      -2.78068385       0.00000000
Si       3.06618525      -2.18862666       0.18980777       0.00000000
Si       3.41117487       1.39953906      -0.80398138       0.00000000
Si      -2.15629101       1.67842386      -2.61290486       0.00000000
