10
Lattice="16.28999089631971 0.0 0.0 0.0 16.28999089631971 0.0 0.0 0.0 34.63643526849801" Properties=species:S:1:pos:R:3:initial_magmoms:R:1 pbc="T T T"
Si       1.78934247       0.77811954       1.38377628       0.00000000
Si       0.15165990       0.53314889      -2.35604092       0.00000000
Si      -0.89581968      -1.95734354       1.20167858       0.00000000
Si      -1.91269035       1.68250125       0.35257663       0.00000000
Si       1.76873562      -1.10000084      -2.72782862       0.00000000
Si       0.50067315       2.09636499       2.83023965       0.00000000
Si      -2.22876522      -0.65806943       2.80076403       0.00000000
Si      -2.14400835       0.51820445      -2.98729030       0.00000000
Si      -0.84997962       3.44877708       1.49968025       0.00000000
Si      -3.65062158       0.66049597       1.47425363       0.00000000
