10
Lattice="16.28999089631971 0.0 0.0 0.0 16.28999089631971 0.0 0.0 0.0 34.63643526849801" Properties=species:S:1:pos:R:3:initial_magmoms:R:1 pbc="T T T"
Si       1.61707572      -1.63314973      -0.37178770       0.00000000
Si      -2.29566825      -0.01494445      -0.63124939       0.00000000
Si      -0.15165990      -0.53314889       2.35604092       0.00000000
Si       1.35410625       1.45226490      -1.47852634       0.00000000
Si      -1.87833474       0.44074387      -2.99847788       0.00000000
Si      -2.06435025       1.14935235       2.70861755       0.00000000
Si       0.96839163      -2.54064934      -2.50106375       0.00000000
Si       0.31403862       1.17427605      -3.56177054       0.00000000
Si      -3.32702073       1.69985661       0.82441689       0.00000000
Si       3.85742313      -0.90474660      -0.05770433       0.00000000
