10
Lattice="16.28999089631971 0.0 0.0 0.0 16.28999089631971 0.0 0.0 0.0 34.63643526849801" Properties=species:S:1:pos:R:3:initial_magmoms:R:1 pbc="T T T"
Si      -0.13354542      -2.27770038       0.49256502       0.00000000
Si      -1.67826096       0.97568955       1.32273157       0.00000000
Si       2.03221008       1.13296950       0.32880386       0.00000000
Si      -0.31794822       1.67009967      -2.11749965       0.00000000
Si       0.83935854       3.14354646      -0.47493507       0.00000000
Si      -2.44288098      -2.39982651      -0.03058399       0.00000000
Si      -3.47654664      -0.21046680       0.32222294       0.00000000
Si      -1.02640032       3.21911577       0.97868766       0.00000000
Si       3.66013494      -0.10293651      -1.02735188       0.00000000
Si       2.63682972       0.84996333       2.61993606       0.00000000
