10
Lattice="16.28999089631971 0.0 0.0 0.0 16.28999089631971 0.0 0.0 0.0 34.63643526849801" Properties=species:S:1:pos:R:3:initial_magmoms:R:1 pbc="T T T"
Si      -1.17737115      -2.00510745       0.46977423       0.00000000
Si       1.80704318       0.50471633       1.51472143       0.00000000
Si      -1.19915740       2.07694568      -0.25492431       0.00000000
Si       0.79996280      -0.21685411      -2.27218606       0.00000000
Si       0.59993789       3.25445204      -1.01883131       0.00000000
Si       2.14470230       2.73116837       0.71600479       0.00000000
Si      -2.88629219      -1.75034814      -1.12873278       0.00000000
Si       1.22848754       2.20014695      -3.02251558       0.00000000
Si      -3.87297749       0.37865290      -0.65663791       0.00000000
Si       3.50257154      -1.19047713       1.46408294       0.00000000
