10
Lattice="16.28999089631971 0.0 0.0 0.0 16.28999089631971 0.0 0.0 0.0 34.63643526849801" Properties=species:S:1:pos:R:3:initial_magmoms:R:1 pbc="T T T"
Si       0.08749359      -1.34843733       1.92093777       0.00000000
Si      -0.67684950       1.53808551       1.68991262       0.00000000
Si       2.35708155       0.43772859      -0.04468103       0.00000000
Si      -0.93084318      -0.84010788      -2.07649009       0.00000000
Si       0.87902469       0.53455635       3.43382348       0.00000000
Si      -1.82358405       1.09488348      -3.20951779       0.00000000
Si       3.64887855      -1.49548716       0.12974816       0.00000000
Si       0.90111393      -1.58374638      -3.51833642       0.00000000
Si       1.10048724      -3.45229083       1.61229233       0.00000000
Si       3.04565985       2.41748487       0.99042942       0.00000000
