10
Lattice="16.28999089631971 0.0 0.0 0.0 16.28999089631971 0.0 0.0 0.0 34.63643526849801" Properties=species:S:1:pos:R:3:initial_magmoms:R:1 pbc="T T T"
Si       0.70029081      -1.81464084       1.33585878       0.00000000
Si       1.88090856       1.46313522      -0.16819462       0.00000000
Si      -0.50801994      -0.71174268      -2.23626806       0.00000000
Si      -1.68909381       0.93177171       1.45303391       0.00000000
Si      -0.40878126       0.91430883       3.43784130       0.00000000
Si       1.32783048      -0.77322114       3.53298764       0.00000000
Si      -2.39308245       0.48975885      -2.98344566       0.00000000
Si       1.32649470       3.40649964      -1.49740321       0.00000000
Si       3.82875273       0.28241973      -1.04771812       0.00000000
Si       2.56332924       2.33065917       1.99180396       0.00000000
