10
Lattice="16.28999089631971 0.0 0.0 0.0 16.28999089631971 0.0 0.0 0.0 34.63643526849801" Properties=species:S:1:pos:R:3:initial_magmoms:R:1 pbc="T T T"
Si       0.08869905       1.60068798       1.69652818       0.00000000
Si      -1.82831304      -1.38675860       0.67319413       0.00000000
Si       0.26999046       0.48027807      -2.43068248       0.00000000
Si       1.94261508      -0.09906438       1.86118989       0.00000000
Si       1.96551882      -1.21491539      -2.48132097       0.00000000
Si      -0.48827646      -2.95535528       1.95709823       0.00000000
Si       0.89726949      -1.66347683       3.31309954       0.00000000
Si       1.39189905       3.51513765       0.92427379       0.00000000
Si      -1.71399796       0.99173194       3.36287212       0.00000000
Si      -3.45583295      -0.18072289       2.17315112       0.00000000
