10
Lattice="16.28999089631971 0.0 0.0 0.0 16.28999089631971 0.0 0.0 0.0 34.63643526849801" Properties=species:S:1:pos:R:3:initial_magmoms:R:1 pbc="T T T"
Si      -1.27966095       1.34925183      -1.39106929       0.00000000
Si       0.87891066       1.79703135       1.23392370       0.00000000
Si      -1.74908988      -0.73316403       1.40779870       0.00000000
Si       1.43830926      -1.37196009      -1.35303846       0.00000000
Si       1.15960365       0.75355911       3.36074056       0.00000000
Si      -2.70480789      -2.60633484       0.15496350       0.00000000
Si      -2.44481949       2.86672953      -0.01323113       0.00000000
Si      -3.46854825       1.00522332       1.11106819       0.00000000
Si      -2.63827953      -0.01286910      -2.73053026       0.00000000
Si       2.73641049       2.68928352       0.02909462       0.00000000
