10
Lattice="16.28999089631971 0.0 0.0 0.0 16.28999089631971 0.0 0.0 0.0 34.63643526849801" Properties=species:S:1:pos:R:3:initial_magmoms:R:1 pbc="T T T"
Si      -0.31403862      -2.26445661       0.33507306       0.00000000
Si      -2.12835366       0.98475398      -0.26940234       0.00000000
Si       1.91334195       0.16531092      -1.37724935       0.00000000
Si       1.06634340       0.44843684       2.06724216       0.00000000
Si       2.46249414       2.26314431      -0.54805262       0.00000000
Si       2.60286507      -1.30126149       1.84331748       0.00000000
Si      -2.42162253      -2.22920505       1.40253396       0.00000000
Si      -1.52849070       3.31313255      -0.50340623       0.00000000
Si       3.40847073      -1.38505725      -0.36441014       0.00000000
Si       2.23153452       2.44735163       1.78450478       0.00000000
