10
Lattice="16.28999089631971 0.0 0.0 0.0 16.28999089631971 0.0 0.0 0.0 34.63643526849801" Properties=species:S:1:pos:R:3:initial_magmoms:R:1 pbc="T T T"
Si       1.35630300      -1.35807252       1.36079703       0.00000000
Si      -1.35892809       1.35831559       1.36041603       0.00000000
Si       1.36005055       1.37647894      -1.37261152       0.00000000
Si      -1.37575566      -1.36567282      -1.37423251       0.00000000
Si       2.71417857       2.70939190       0.00193964       0.00000000
Si       2.71466401      -2.71199245       0.00273628       0.00000000
Si      -2.71401174       2.71279651       0.00931721       0.00000000
Si      -2.71948518      -2.71288840       0.00637311       0.00000000
Si      -0.00087966       2.71405084       2.71851141       0.00000000
Si       2.71447342      -0.00052943       2.71819969       0.00000000
