10
Lattice="16.28999089631971 0.0 0.0 0.0 16.28999089631971 0.0 0.0 0.0 34.63643526849801" Properties=species:S:1:pos:R:3:initial_magmoms:R:1 pbc="T T T"
Si      -1.35508365       1.35448092      -1.35109882       0.00000000
Si       1.35804843       1.35573525       1.35809539       0.00000000
Si      -1.35720135      -1.35868700       1.35806075       0.00000000
Si       1.35892809      -1.35831559      -1.36041603       0.00000000
Si      -2.70394452       0.01407456      -2.70319171       0.00000000
Si      -0.01330893       2.70557352      -2.70836640       0.00000000
Si      -2.71336014       2.71161711       0.00034636       0.00000000
Si       0.00040725       2.71378368       2.71535950       0.00000000
Si      -2.71415835      -0.00136836       2.71501313       0.00000000
Si       2.71594589       2.71463076       0.00062346       0.00000000
