10
Lattice="16.28999089631971 0.0 0.0 0.0 16.28999089631971 0.0 0.0 0.0 34.63643526849801" Properties=species:S:1:pos:R:3:initial_magmoms:R:1 pbc="T T T"
Si      -1.35619137      -1.35712641      -1.35761048       0.00000000
Si      -1.35716877       1.35609852       1.35961939       0.00000000
Si       1.35875854       1.35728769      -1.35702166       0.00000000
Si       1.35974778      -1.35510745       1.36148976       0.00000000
Si      -2.71419093      -2.71249907      -0.00058882       0.00000000
Si      -2.71393029       0.00011566      -2.71438968       0.00000000
Si      -2.71463076       2.71387002       0.00034636       0.00000000
Si       0.00131949       2.71453791      -2.71435504       0.00000000
Si       0.00154755      -2.71525208      -2.71438968       0.00000000
Si      -2.71467963       0.00506456       2.71515168       0.00000000
