10
Lattice="16.28999089631971 0.0 0.0 0.0 16.28999089631971 0.0 0.0 0.0 34.63643526849801" Properties=species:S:1:pos:R:3:initial_magmoms:R:1 pbc="T T T"
Si       1.33752303       1.35682668      -1.37364715       0.00000000
Si      -1.38689802       1.35746199       1.34867427       0.00000000
Si      -1.37891592      -1.35593073      -1.37326615       0.00000000
Si       1.29124314      -1.42861671       1.50678969       0.00000000
Si      -2.18779587      -0.44691615       2.77798221       0.00000000
Si      -0.59044734      -2.29216590       2.75294005       0.00000000
Si       2.68093231      -2.71537358       0.00734293       0.00000000
Si       2.68852671       2.72142369       0.00931721       0.00000000
Si       2.69368575       0.00342090      -2.73354364       0.00000000
Si      -2.73642678      -2.70696469      -0.01773386       0.00000000
