10
Lattice="16.28999089631971 0.0 0.0 0.0 16.28999089631971 0.0 0.0 0.0 34.63643526849801" Properties=species:S:1:pos:R:3:initial_magmoms:R:1 pbc="T T T"
Si      -0.60584139       0.16620687       2.23301223       0.00000000
Si       1.46459059      -1.80387152       0.03810010       0.00000000
Si      -2.14834149      -0.30618684      -0.87754921       0.00000000
Si       0.78364888       2.05526043      -0.89414008       0.00000000
Si      -1.14492636       2.48389920       2.21728728       0.00000000
Si       3.12524369       1.64770092      -0.75164570       0.00000000
Si       0.57889773       3.46139694       0.96670345       0.00000000
Si       0.03453480      -3.65005862       0.63021029       0.00000000
Si       3.56435693       0.14859738       1.04086010       0.00000000
Si      -1.91738187      -0.49039416      -3.21010661       0.00000000
