10
Lattice="16.28999089631971 0.0 0.0 0.0 16.28999089631971 0.0 0.0 0.0 34.63643526849801" Properties=species:S:1:pos:R:3:initial_magmoms:R:1 pbc="T T T"
Si       1.05557571       1.62432477      -1.31293194       0.00000000
Si      -1.28415699       1.36513458       1.43084233       0.00000000
Si       1.44813058      -1.32227559       1.40618118       0.00000000
Si      -0.66617955      -2.05328934      -1.14550895       0.00000000
Si      -0.68892039       3.35777625      -1.21257032       0.00000000
Si      -2.57386887       2.72629440       0.07177712       0.00000000
Si      -2.68612326      -2.64460982      -0.01044635       0.00000000
Si      -2.62593171       0.01404198       2.78810991       0.00000000
Si       2.74452684       2.67546960      -0.02420742       0.00000000
Si       0.08808003      -2.69875453       2.77879270       0.00000000
