10
Lattice="16.28999089631971 0.0 0.0 0.0 16.28999089631971 0.0 0.0 0.0 34.63643526849801" Properties=species:S:1:pos:R:3:initial_magmoms:R:1 pbc="T T T"
Si      -1.75304835      -0.94364712      -1.13189163       0.00000000
Si       1.28971188      -1.36115982       1.35906521       0.00000000
Si       1.88494848       0.63148185      -1.28434745       0.00000000
Si      -1.39080762       1.37396376       1.35165647       0.00000000
Si      -3.14149392       1.00631475      -1.50808305       0.00000000
Si       2.60685612       2.58647733      -0.01091741       0.00000000
Si       2.57386887      -2.72629440      -0.07177712       0.00000000
Si       2.66432724       0.00617391       2.71113731       0.00000000
Si      -0.05206284      -2.71225242       2.71633278       0.00000000
Si      -0.05647743       2.72010420       2.71456632       0.00000000
