10
Lattice="16.28999089631971 0.0 0.0 0.0 16.28999089631971 0.0 0.0 0.0 34.63643526849801" Properties=species:S:1:pos:R:3:initial_magmoms:R:1 pbc="T T T"
Si       0.16418691      -2.20843530       0.75971600       0.00000000
Si       1.09439708       0.03332934      -2.08840503       0.00000000
Si       1.05612861       1.91791944       0.96233926       0.00000000
Si      -2.24865531       0.64415547      -0.51220389       0.00000000
Si       0.21668958       3.35533275      -0.67343659       0.00000000
Si      -1.98505053       2.93842278      -0.01506686       0.00000000
Si       0.96534933       2.33409636      -2.63760066       0.00000000
Si       1.91670325      -2.25943929       2.33588250       0.00000000
Si       0.36893806      -3.61457181      -1.10112753       0.00000000
Si      -0.10528227      -0.93095721      -3.85493349       0.00000000
