10
Lattice="16.28999089631971 0.0 0.0 0.0 16.28999089631971 0.0 0.0 0.0 34.63643526849801" Properties=species:S:1:pos:R:3:initial_magmoms:R:1 pbc="T T T"
Si      -0.30900501      -0.84409893      -2.12851405       0.00000000
Si       2.16450347       0.97352298       0.08125712       0.00000000
Si      -1.70359191       1.72507842       0.15136131       0.00000000
Si       0.61520814      -2.14837407       1.02943007       0.00000000
Si      -0.76385439       0.38527479       3.34020114       0.00000000
Si       1.26029214      -0.82453464       3.11582619       0.00000000
Si      -0.97518456       2.47366908       2.24613945       0.00000000
Si      -3.51968256       0.25521543       0.39998178       0.00000000
Si      -2.60558550      -0.84813885       2.29497685       0.00000000
Si       3.16733542       0.08239482      -1.80293137       0.00000000
