10
Lattice="16.28999089631971 0.0 0.0 0.0 16.28999089631971 0.0 0.0 0.0 34.63643526849801" Properties=species:S:1:pos:R:3:initial_magmoms:R:1 pbc="T T T"
Si      -1.33433019      -1.34614044      -1.36290985       0.00000000
Si      -1.35456237       1.35684297       1.35393901       0.00000000
Si       1.35995436      -1.35814617       1.35404292       0.00000000
Si       1.35645201       1.34438112      -1.37498412       0.00000000
Si       2.66333355      -0.13362687      -2.72548373       0.00000000
Si      -2.65706190       0.04654053      -2.73943183       0.00000000
Si      -2.71249677       0.00008145       2.71075285       0.00000000
Si       0.00265527      -2.71480995       2.71057967       0.00000000
Si      -2.71178001       2.71371852      -0.01004457       0.00000000
Si       0.00245979       2.71441899       2.71109921       0.00000000
