10
Lattice="16.28999089631971 0.0 0.0 0.0 16.28999089631971 0.0 0.0 0.0 34.63643526849801" Properties=species:S:1:pos:R:3:initial_magmoms:R:1 pbc="T T T"
Si      -1.35637056      -1.35725022       1.35716020       0.00000000
Si       1.35764118      -1.35778779      -1.35650211       0.00000000
Si       1.35775521       1.35619137       1.35799148       0.00000000
Si      -1.35782037       1.35762489      -1.35677920       0.00000000
Si       2.71462579      -0.00110772      -2.71390477       0.00000000
Si      -0.00032580      -2.71494027      -2.71383549       0.00000000
Si      -2.71484253       0.00004887      -2.71393940       0.00000000
Si       2.71477874      -2.71450044       0.00027709       0.00000000
Si       2.71500277       2.71511946       0.00055418       0.00000000
Si      -2.71507059      -2.71508688      -0.00027709       0.00000000
