10
Lattice="16.28999089631971 0.0 0.0 0.0 16.28999089631971 0.0 0.0 0.0 34.63643526849801" Properties=species:S:1:pos:R:3:initial_magmoms:R:1 pbc="T T T"
Si       1.20102912       1.99301634      -0.41369781       0.00000000
Si       1.61018505      -1.50483762       0.99656007       0.00000000
Si      -1.83195711       0.74363850       1.44184633       0.00000000
Si       0.13276350      -1.40336721      -2.13374415       0.00000000
Si       1.21585302       0.28654110      -3.40556013       0.00000000
Si      -3.03288849      -1.34780202       1.53020393       0.00000000
Si       2.72520297       1.96540479       1.43869442       0.00000000
Si       2.89795842       1.23154029      -2.04012181       0.00000000
Si      -0.49401054       3.75372099      -0.07453765       0.00000000
Si      -2.72469798       2.67862986       0.30881863       0.00000000
