10
Lattice="16.28999089631971 0.0 0.0 0.0 16.28999089631971 0.0 0.0 0.0 34.63643526849801" Properties=species:S:1:pos:R:3:initial_magmoms:R:1 pbc="T T T"
Si      -1.28708919       1.34040636      -1.44447870       0.00000000
Si      -1.95766704      -0.80433504       1.18013328       0.00000000
Si       1.42171857      -1.37569050      -1.41396399       0.00000000
Si       1.07047196       1.79211177       1.25044528       0.00000000
Si      -2.56982895       2.71116099      -0.03622973       0.00000000
Si      -2.65370616      -2.73965220      -0.07460692       0.00000000
Si       2.81311100      -2.60421714       0.08908496       0.00000000
Si      -2.64389958      -0.01971090      -2.79630489       0.00000000
Si       0.06924052       2.69319312      -2.79616635       0.00000000
Si       2.82132116       2.70606222      -0.02033160       0.00000000
