10
Lattice="16.28999089631971 0.0 0.0 0.0 16.28999089631971 0.0 0.0 0.0 34.63643526849801" Properties=species:S:1:pos:R:3:initial_magmoms:R:1 pbc="T T T"
Si       1.36055546       1.35506736      -1.38192527       0.00000000
Si      -1.35100368      -1.36459701      -1.38296436       0.00000000
Si       1.39139243      -1.22852664       1.50304895       0.00000000
Si      -1.42171857       1.37569050       1.41396399       0.00000000
Si      -2.68852671      -2.72142369      -0.00931721       0.00000000
Si       2.71510154      -2.70177795      -0.00252846       0.00000000
Si      -2.70880776       2.71609686      -0.03051472       0.00000000
Si       2.71816406       2.71635750      -0.01686795       0.00000000
Si      -2.70884034      -0.00275301      -2.74251448       0.00000000
Si       0.00614459       2.71371852      -2.74178711       0.00000000
