10
Lattice="16.28999089631971 0.0 0.0 0.0 16.28999089631971 0.0 0.0 0.0 34.63643526849801" Properties=species:S:1:pos:R:3:initial_magmoms:R:1 pbc="T T T"
Si       1.97514621       1.20435228       0.43361378       0.00000000
Si       0.22939578      -2.17297197      -0.88281396       0.00000000
Si       0.06419889      -0.43013745       2.32202792       0.00000000
Si      -1.61018505       1.50483762      -0.99656007       0.00000000
Si       1.13757957       1.59309684       2.65152451       0.00000000
Si      -1.47742155       0.10147041      -3.13030422       0.00000000
Si      -1.82229714      -3.08944737      -0.01877296       0.00000000
Si       0.21782988      -1.72411731      -3.18575719       0.00000000
Si       2.43938582      -2.65320117      -0.50094704       0.00000000
Si       1.11501792       3.47024241       0.44213434       0.00000000
