10
Lattice="16.28999089631971 0.0 0.0 0.0 16.28999089631971 0.0 0.0 0.0 34.63643526849801" Properties=species:S:1:pos:R:3:initial_magmoms:R:1 pbc="T T T"
Si      -1.43479062      -1.77284070      -0.50555369       0.00000000
Si       1.47501063      -0.06643062      -1.81204076       0.00000000
Si      -1.01299365       2.10385350       0.30864545       0.00000000
Si       1.08263340       0.03236823       2.09938479       0.00000000
Si       2.54839131       1.95680367      -1.48254417       0.00000000
Si       0.10011834      -3.56456151      -0.27799218       0.00000000
Si      -0.59618142      -0.82945422       3.54912823       0.00000000
Si      -2.99553552       1.60637319       1.51797726       0.00000000
Si       1.34623818       2.32663554       2.59652182       0.00000000
Si      -2.03941026      -1.48983453      -2.79668589       0.00000000
