10
Lattice="16.28999089631971 0.0 0.0 0.0 16.28999089631971 0.0 0.0 0.0 34.63643526849801" Properties=species:S:1:pos:R:3:initial_magmoms:R:1 pbc="T T T"
Si       1.18187764      -0.18511956      -2.03863245       0.00000000
Si       0.01826109       1.96789716       1.31667019       0.00000000
Si       2.00467088      -0.91157211       0.97203746       0.00000000
Si      -2.30400873      -0.98018559      -0.16490416       0.00000000
Si       2.38181696       1.85613147       0.95312596       0.00000000
Si       0.83567930      -2.48033169      -2.32978648       0.00000000
Si       1.85349805      -3.20653989      -0.30812590       0.00000000
Si       0.30783068       1.47680253      -3.45560981       0.00000000
Si       0.49263471       1.30818474       3.50460242       0.00000000
Si      -2.09267856      -3.06857988       0.92915753       0.00000000
