10
Lattice="16.28999089631971 0.0 0.0 0.0 16.28999089631971 0.0 0.0 0.0 34.63643526849801" Properties=species:S:1:pos:R:3:initial_magmoms:R:1 pbc="T T T"
Si       1.43098244      -1.22947146       1.40603917       0.00000000
Si       1.11586500       1.71884491      -1.21099471       0.00000000
Si      -1.29360519       1.47789396       1.37568378       0.00000000
Si      -1.40629941      -1.19560455      -1.58945794       0.00000000
Si      -2.59634907      -2.57782734      -0.04227379       0.00000000
Si       2.76044868      -2.52092637      -0.00928603       0.00000000
Si      -0.67210911       3.48903197      -1.17438536       0.00000000
Si       0.08343738      -2.58719409       2.74936210       0.00000000
Si      -2.63733471       0.13067838       2.75628940       0.00000000
Si       2.74338491       0.51280920      -2.71095170       0.00000000
