10
Lattice="16.28999089631971 0.0 0.0 0.0 16.28999089631971 0.0 0.0 0.0 34.63643526849801" Properties=species:S:1:pos:R:3:initial_magmoms:R:1 pbc="T T T"
Si      -1.34372952      -1.34721558       1.38060562       0.00000000
Si       1.37575566       1.36567282       1.37423251       0.00000000
Si       1.29360519      -1.47789396      -1.37568378       0.00000000
Si      -1.39844763       1.41981752      -1.41500654       0.00000000
Si       0.62149608       2.01113801      -2.55006914       0.00000000
Si       2.40947019       0.24095095      -2.58667849       0.00000000
Si      -2.69542485      -2.69089623      -0.01076155       0.00000000
Si      -2.68711695       2.73806297       0.03145683       0.00000000
Si      -2.69591355       0.00546675       2.73579154       0.00000000
Si       2.72458763      -2.70736542       0.03035539       0.00000000
