10
Lattice="16.28999089631971 0.0 0.0 0.0 16.28999089631971 0.0 0.0 0.0 34.63643526849801" Properties=species:S:1:pos:R:3:initial_magmoms:R:1 pbc="T T T"
Si       1.32165657       1.88711505      -0.34927401       0.00000000
Si       0.79723260      -1.32457248       1.77702330       0.00000000
Si      -2.21396250       0.85713093       0.13359281       0.00000000
Si       0.07542270      -1.46820141      -1.91020047       0.00000000
Si      -0.59782671      -3.19832973       1.26336468       0.00000000
Si      -1.64688968      -0.27142398      -3.14471299       0.00000000
Si      -3.41364185      -0.10715562      -1.63293565       0.00000000
Si       3.33679473       1.59909156       0.80838021       0.00000000
Si       0.14292846      -3.73479201      -0.89819254       0.00000000
Si       0.73072053       2.82854673      -2.50764468       0.00000000
