10
Lattice="16.28999089631971 0.0 0.0 0.0 16.28999089631971 0.0 0.0 0.0 34.63643526849801" Properties=species:S:1:pos:R:3:initial_magmoms:R:1 pbc="T T T"
Si      -1.98681148      -1.02149703       0.61247643       0.00000000
Si       1.74078198      -1.00760166       1.20029170       0.00000000
Si       0.53841708       2.25930897       0.39894268       0.00000000
Si       0.20207745      -0.91043181      -2.16838061       0.00000000
Si       3.57150105      -0.75372201      -0.26448397       0.00000000
Si      -1.38241827      -3.22898751       1.11415084       0.00000000
Si       2.52001413      -1.47248568      -2.34568462       0.00000000
Si       2.61024444       2.61444726      -0.79913228       0.00000000
Si      -0.23871366       2.67458994       2.75598806       0.00000000
Si      -2.98964343      -0.13036887       2.49666492       0.00000000
