10
Lattice="16.28999089631971 0.0 0.0 0.0 16.28999089631971 0.0 0.0 0.0 34.63643526849801" Properties=species:S:1:pos:R:3:initial_magmoms:R:1 pbc="T T T"
Si       1.35667436       1.35816246       1.35636356       0.00000000
Si      -1.35743905       1.35725022      -1.35733338       0.00000000
Si       1.35791403      -1.35733004      -1.35764511       0.00000000
Si      -1.35875854      -1.35728769       1.35702166       0.00000000
Si       0.00051164       2.71156824       2.71626004       0.00000000
Si      -2.71494991      -2.71441410      -0.00058882       0.00000000
Si       2.71479121      -2.71472919       0.00048491       0.00000000
Si      -0.00025639      -2.71487314      -2.71504777       0.00000000
Si       2.71541023       0.00166158      -2.71463213       0.00000000
Si      -2.71508023       2.71529865      -0.00006927       0.00000000
