10
Lattice="16.28999089631971 0.0 0.0 0.0 16.28999089631971 0.0 0.0 0.0 34.63643526849801" Properties=species:S:1:pos:R:3:initial_magmoms:R:1 pbc="T T T"
Si      -0.39320802       2.08270908      -0.92631734       0.00000000
Si      -1.88930117      -1.14432363       0.71794443       0.00000000
Si       1.18442961      -1.47367485      -1.37409743       0.00000000
Si       1.20581838      -0.40529520       1.97472819       0.00000000
Si       1.77536565      -2.41510653       0.78427324       0.00000000
Si      -1.89567870       3.05896878       0.57209032       0.00000000
Si      -0.60748668      -2.35701639      -2.76769518       0.00000000
Si       1.75539411       3.12989544      -1.02333405       0.00000000
Si      -2.63796092      -0.12308724       2.68210850       0.00000000
Si       3.30810804      -0.66156948      -1.70082310       0.00000000
