10
Lattice="16.28999089631971 0.0 0.0 0.0 16.28999089631971 0.0 0.0 0.0 34.63643526849801" Properties=species:S:1:pos:R:3:initial_magmoms:R:1 pbc="T T T"
Si      -2.00467088       0.91157211      -0.97203746       0.00000000
Si       0.36629694       0.30825567       2.38402964       0.00000000
Si      -0.15117283      -2.29496778      -1.28016336       0.00000000
Si       0.37714608       2.76770358      -0.01891150       0.00000000
Si      -0.82279324       0.72645255      -3.01066991       0.00000000
Si      -1.98640979       2.87946927       0.34463272       0.00000000
Si       1.58193819       1.23619923      -3.04250081       0.00000000
Si       3.26515131       0.23806206      -1.62677036       0.00000000
Si      -1.51203617       2.21975685       2.53256495       0.00000000
Si      -1.16899158      -1.56875958      -3.30182395       0.00000000
