10
Lattice="16.28999089631971 0.0 0.0 0.0 16.28999089631971 0.0 0.0 0.0 34.63643526849801" Properties=species:S:1:pos:R:3:initial_magmoms:R:1 pbc="T T T"
Si       0.70048303      -2.05402239       0.90861811       0.00000000
Si       1.41449002       1.13401206      -1.58150052       0.00000000
Si      -1.22508360      -1.51487226      -1.51271252       0.00000000
Si      -0.58334001       0.95737959       2.20679243       0.00000000
Si      -0.24953511      -1.38508983       3.14014098       0.00000000
Si       2.63679388       2.62974098      -0.19237087       0.00000000
Si       2.76069562      -0.73396224       2.48239470       0.00000000
Si      -2.73964635       2.05292674       1.89735035       0.00000000
Si       2.77191943      -2.79103086      -0.11966895       0.00000000
Si      -2.15838657      -3.30004449      -0.30272261       0.00000000
