10
Lattice="10.86 0.0 0.0 0.0 10.86 0.0 0.0 0.0 10.86" Properties=species:S:1:pos:R:3:initial_magmoms:R:1 pbc="T T T"
Si      -0.78708936      -1.47330018       1.54821246       0.00000000
Si       1.69754832       1.58646138       0.87503364       0.00000000
Si      -1.01745168       1.58646138      -1.83996636       0.00000000
Si       1.69754832      -1.12853862      -1.83996636       0.00000000
Si      -2.35848792       0.22200012       2.26904496       0.00000000
Si      -2.44490094      -2.43558306      -0.10148670       0.00000000
Si       0.34004832       2.94396138       2.23253364       0.00000000
Si       2.88869484       0.34947480       2.46416658       0.00000000
Si      -2.37495168       2.94396138      -0.48246636       0.00000000
Si      -2.37495168       0.22896138      -3.19746636       0.00000000
