10
Lattice="10.86 0.0 0.0 0.0 10.86 0.0 0.0 0.0 10.86" Properties=species:S:1:pos:R:3:initial_magmoms:R:1 pbc="T T T"
Si       1.44382614      -0.83646978      -1.69722252       0.00000000
Si      -1.61721690       1.55986524      -1.02203460       0.00000000
Si       1.09778310       1.55986524       1.69296540       0.00000000
Si      -1.61721690      -1.15513476       1.69296540       0.00000000
Si      -0.10222518      -2.43658218      -2.29460940       0.00000000
Si       2.49264150      -2.46158190       0.15552606       0.00000000
Si       1.32814542       1.21510368      -3.06385578       0.00000000
Si      -0.24325314       2.91040398      -2.34302328       0.00000000
Si      -2.97471690       0.20236524      -2.37953460       0.00000000
Si      -2.97471690      -2.51263476       0.33546540       0.00000000
