10
Lattice="10.86 0.0 0.0 0.0 10.86 0.0 0.0 0.0 10.86" Properties=species:S:1:pos:R:3:initial_magmoms:R:1 pbc="T T T"
Si       1.52385348       1.23698658       1.12586706       0.00000000
Si      -1.19114652       1.23698658      -1.58913294       0.00000000
Si       1.52385348      -1.47801342      -1.58913294       0.00000000
Si      -2.44334796       0.08166720       2.46227694       0.00000000
Si       0.16635348       2.59448658       2.48336706       0.00000000
Si      -2.54864652       2.59448658      -0.23163294       0.00000000
Si       2.88135348      -0.12051342       2.48336706       0.00000000
Si      -2.88869484      -0.34947480      -2.46416658       0.00000000
Si       2.88135348       2.59448658      -0.23163294       0.00000000
Si       0.16635348       2.59448658      -2.94663294       0.00000000
