10
Lattice="10.86 0.0 0.0 0.0 10.86 0.0 0.0 0.0 10.86" Properties=species:S:1:pos:R:3:initial_magmoms:R:1 pbc="T T T"
Si       1.37554932      -1.28724666      -1.33035000       0.00000000
Si      -1.33945068      -1.28724666       1.38465000       0.00000000
Si      -1.33945068       1.42775334      -1.33035000       0.00000000
Si       0.01804932      -2.64474666      -2.68785000       0.00000000
Si      -2.69695068      -2.64474666       0.02715000       0.00000000
Si      -2.53945896       0.14630592       2.82707520       0.00000000
Si       2.73304932      -2.64474666       0.02715000       0.00000000
Si      -2.69695068       0.07025334      -2.68785000       0.00000000
Si       0.01804932      -2.64474666       2.74215000       0.00000000
Si       2.73304932       0.07025334      -2.68785000       0.00000000
