10
Lattice="10.86 0.0 0.0 0.0 10.86 0.0 0.0 0.0 10.86" Properties=species:S:1:pos:R:3:initial_magmoms:R:1 pbc="T T T"
Si       1.26653664       1.40659806       1.14620784       0.00000000
Si      -1.44846336      -1.30840194       1.14620784       0.00000000
Si      -1.44846336       1.40659806      -1.56879216       0.00000000
Si       0.72647970      -2.45186220      -2.36846826       0.00000000
Si       2.62403664       0.04909806       2.50370784       0.00000000
Si      -0.09096336      -2.66590194       2.50370784       0.00000000
Si      -0.09096336       2.76409806       2.50370784       0.00000000
Si      -2.80596336       0.04909806       2.50370784       0.00000000
Si       2.62154970      -2.77846584      -0.38048010       0.00000000
Si       2.57911968       2.86386888      -0.07999476       0.00000000
