10
Lattice="10.86 0.0 0.0 0.0 10.86 0.0 0.0 0.0 10.86" Properties=species:S:1:pos:R:3:initial_magmoms:R:1 pbc="T T T"
Si       1.26743802      -1.42192152      -1.24717326       0.00000000
Si       1.26743802       1.29307848       1.46782674       0.00000000
Si      -1.44756198      -1.42192152       1.46782674       0.00000000
Si      -0.14253750       2.56335096      -2.48733096       0.00000000
Si       2.62493802      -0.06442152      -2.60467326       0.00000000
Si       2.62493802       2.65057848       0.11032674       0.00000000
Si      -0.09006198      -2.77942152      -2.60467326       0.00000000
Si       2.62493802      -2.77942152       0.11032674       0.00000000
Si       2.62493802      -0.06442152       2.82532674       0.00000000
Si      -2.92524960       0.11056566       2.52619890       0.00000000
