10
Lattice="10.86 0.0 0.0 0.0 10.86 0.0 0.0 0.0 10.86" Properties=species:S:1:pos:R:3:initial_magmoms:R:1 pbc="T T T"
Si      -1.37220444       1.37030394       1.18156800       0.00000000
Si      -1.66605432      -0.94505892      -1.35993264       0.00000000
Si       1.29081960       1.65986412      -1.59472584       0.00000000
Si       1.39726932      -2.26188822       0.35529576       0.00000000
Si      -0.11287884      -2.58459312       2.43523554       0.00000000
Si      -2.83901034      -2.49480264      -0.17304324       0.00000000
Si      -2.83901034       0.22019736       2.54195676       0.00000000
Si      -0.12401034      -2.49480264      -2.88804324       0.00000000
Si      -0.12401034       2.93519736       2.54195676       0.00000000
Si       2.59098966       0.22019736      -2.88804324       0.00000000
