10
Lattice="16.290000149 0.0 0.0 0.0 16.290000149 0.0 0.0 0.0 29.1751946751" Properties=species:S:1:pos:R:3:initial_magmoms:R:1 pbc="T T T"
Si       1.36901161       1.34874685       1.33756598       0.00000000
Si       1.44272386      -1.33263441      -1.28122867       0.00000000
Si      -1.34925184      -1.38824359       1.33514443       0.00000000
Si      -1.37710774       1.33972219      -1.35953490       0.00000000
Si       0.11870523      -2.66828720      -2.61972826       0.00000000
Si       0.03306870       2.74421343      -2.61783479       0.00000000
Si       0.00438201       2.69592986       2.68826079       0.00000000
Si       2.69395877      -0.03477915       2.69783025       0.00000000
Si      -2.71158455      -0.02568933       2.68111287       0.00000000
Si      -2.79616224      -0.08904114      -2.59624222       0.00000000
