10
Lattice="16.290000149 0.0 0.0 0.0 16.290000149 0.0 0.0 0.0 29.1751946751" Properties=species:S:1:pos:R:3:initial_magmoms:R:1 pbc="T T T"
Si       1.08206326      -1.42021108      -1.49800037       0.00000000
Si      -1.54587214       1.32442588      -1.18585496       0.00000000
Si      -1.05179644      -1.76490749       1.18241229       0.00000000
Si       2.12692016       0.97156819       0.67986956       0.00000000
Si       0.21975210       0.80091415       3.38026723       0.00000000
Si       2.37767213      -2.71357193      -0.07147923       0.00000000
Si      -0.20272905       2.70453098      -2.49835945       0.00000000
Si       2.49577463      -0.09273897      -2.73747934       0.00000000
Si      -1.40282965      -0.88293430       3.31649025       0.00000000
Si       0.55117215      -3.54310761       1.09841690       0.00000000
