10
Lattice="16.290000149 0.0 0.0 0.0 16.290000149 0.0 0.0 0.0 29.1751946751" Properties=species:S:1:pos:R:3:initial_magmoms:R:1 pbc="T T T"
Si      -1.34325712       1.35796699      -1.36857921       0.00000000
Si       1.32726034      -1.34915410      -1.39562461       0.00000000
Si       1.34838196       1.37852497       1.35119079       0.00000000
Si      -1.34395759      -1.37207413       1.36271499       0.00000000
Si       2.66655899      -2.70813107      -0.03273457       0.00000000
Si      -2.68700294       2.72368802      -0.01765099       0.00000000
Si      -2.70989039      -2.71125875      -0.00939441       0.00000000
Si      -2.72753247      -0.02811654       2.69785943       0.00000000
Si       2.71979471       0.03673395       2.70772064       0.00000000
Si       2.70816365       2.72826552      -0.00291752       0.00000000
