10
Lattice="16.290000149 0.0 0.0 0.0 16.290000149 0.0 0.0 0.0 29.1751946751" Properties=species:S:1:pos:R:3:initial_magmoms:R:1 pbc="T T T"
Si      -1.37771536       1.45474263      -1.15630049       0.00000000
Si       1.53015229      -1.26252388      -1.21409655       0.00000000
Si       0.84343105       1.66032894       1.39769605       0.00000000
Si      -0.91673605      -1.73203427       1.28076187       0.00000000
H        0.23796432       2.96958558       0.95910535       0.00000000
Si       2.56367135      -2.09049572       0.73833665       0.00000000
Si       0.11862378      -2.65691531      -2.51411405       0.00000000
Si      -2.60684477       0.09607076      -2.60563664       0.00000000
Si       0.08259030       1.07747437       3.54927913       0.00000000
Si       0.73617769      -3.38568105       1.37555208       0.00000000
