10
Lattice="16.290000149 0.0 0.0 0.0 16.290000149 0.0 0.0 0.0 29.1751946751" Properties=species:S:1:pos:R:3:initial_magmoms:R:1 pbc="T T T"
Si       1.31121469       1.36057339       1.34555123       0.00000000
Si      -1.37826433       1.26459271      -1.41351776       0.00000000
Si       1.28705662      -1.44777376      -1.33062520       0.00000000
Si      -1.42767190      -1.38979765       1.28194930       0.00000000
Si      -2.18774702      -0.59414518      -2.59527157       0.00000000
Si      -0.55625464      -2.33061032      -2.50951896       0.00000000
Si       2.62009991       2.64930788      -0.12533955       0.00000000
Si       2.62857071      -0.03036456       2.68720173       0.00000000
Si      -0.10720449       2.69133608       2.64819449       0.00000000
Si       2.53612496      -2.81777907       0.08346148       0.00000000
