10
Lattice="16.290000149 0.0 0.0 0.0 16.290000149 0.0 0.0 0.0 29.1751946751" Properties=species:S:1:pos:R:3:initial_magmoms:R:1 pbc="T T T"
Si       1.35604477       1.33946155      -1.31576627       0.00000000
Si       1.43382952      -1.31932711       1.28227898       0.00000000
Si      -1.33574743       1.44181162       1.28890175       0.00000000
Si      -1.30344436      -1.29639079      -1.47544503       0.00000000
Si      -0.05005917       2.70523145      -2.56791311       0.00000000
Si       0.05377329      -2.63673200       2.64601511       0.00000000
Si      -2.67126680      -2.64502361      -0.12431550       0.00000000
Si      -2.69969285       0.08050518       2.61826950       0.00000000
Si       2.77959531      -2.59911839      -0.17863972       0.00000000
Si       2.76881133       0.08545734       2.62083691       0.00000000
