10
Lattice="16.290000149 0.0 0.0 0.0 16.290000149 0.0 0.0 0.0 29.1751946751" Properties=species:S:1:pos:R:3:initial_magmoms:R:1 pbc="T T T"
Si       1.34661286       1.35685927       1.36248159       0.00000000
Si      -1.35369901       1.36707310      -1.35492522       0.00000000
Si      -1.36029646      -1.34439742       1.37228446       0.00000000
Si       1.37787337      -1.34912152      -1.35034471       0.00000000
Si      -0.05220945      -2.75314035      -2.59083023       0.00000000
Si       2.67814118      -2.69822675       0.06821161       0.00000000
Si      -0.02347389       2.72069066       2.69803448       0.00000000
Si      -2.67335192       0.02554272      -2.74879056       0.00000000
Si       2.69257412      -0.00216657       2.73138173       0.00000000
Si       2.69834078       2.73201221       0.01590048       0.00000000
