10
Lattice="16.290000149 0.0 0.0 0.0 16.290000149 0.0 0.0 0.0 29.1751946751" Properties=species:S:1:pos:R:3:initial_magmoms:R:1 pbc="T T T"
Si       1.74863378       0.32780042      -1.48878101       0.00000000
Si      -1.91532935       1.06426806      -0.78125336       0.00000000
Si       0.63426745       0.66523637       2.15018267       0.00000000
Si      -0.03937293      -2.14883184       0.97363460       0.00000000
Si       1.86779513      -1.97817780      -1.72676307       0.00000000
H        1.33258717       2.94658247      -0.02806654       0.00000000
Si      -0.60310468      -1.12510307       2.98648963       0.00000000
Si      -0.75595375       2.50776244      -2.28479702       0.00000000
Si      -2.89839828       1.46186298       1.36814158       0.00000000
Si       2.15609555      -2.87078836       0.51371683       0.00000000
