10
Lattice="16.290000149 0.0 0.0 0.0 16.290000149 0.0 0.0 0.0 29.1751946751" Properties=species:S:1:pos:R:3:initial_magmoms:R:1 pbc="T T T"
Si       1.36298431      -1.33924978       1.36420293       0.00000000
Si       1.35550720       1.37029852      -1.34652276       0.00000000
Si      -1.35496963       1.35327547       1.36598261       0.00000000
Si      -1.33498180      -1.40478445      -1.33855793       0.00000000
Si       2.70669755      -2.67015908      -0.02293170       0.00000000
Si      -2.76881133      -0.08545734      -2.62083691       0.00000000
Si       0.01114236      -2.73064385       2.69138253       0.00000000
Si      -2.72417672       2.70122411       0.02427376       0.00000000
Si       0.00933417       2.71474481      -2.71218445       0.00000000
Si       2.71261082       2.71823087       0.02161882       0.00000000
