10
Lattice="16.290000149 0.0 0.0 0.0 16.290000149 0.0 0.0 0.0 29.1751946751" Properties=species:S:1:pos:R:3:initial_magmoms:R:1 pbc="T T T"
Si       1.43705494      -1.21528288       1.37569795       0.00000000
Si      -1.43422048       1.24618501       1.36822910       0.00000000
Si      -1.36896095      -1.41007870      -1.30483141       0.00000000
Si       1.36254448       1.43039233      -1.29920059       0.00000000
H       -1.16125058      -1.39066102       2.99821806       0.00000000
Si      -0.05124508      -2.40319856       2.76324104       0.00000000
Si       2.57183264      -2.64525167      -0.08609600       0.00000000
Si      -0.01677381       2.68589522       2.53561617       0.00000000
Si       2.56132559       0.02586852      -2.77021391       0.00000000
Si      -2.73168642       2.65805561       0.01406244       0.00000000
