10
Lattice="16.290000149 0.0 0.0 0.0 16.290000149 0.0 0.0 0.0 29.1751946751" Properties=species:S:1:pos:R:3:initial_magmoms:R:1 pbc="T T T"
Si      -1.43705494       1.21528288      -1.37569795       0.00000000
Si       1.13477770      -1.42996879      -1.46179395       0.00000000
Si      -1.48830003      -1.18791568       1.38754308       0.00000000
Si       1.48742362       1.34416936       1.31358397       0.00000000
H        0.01969461      -2.66958893       0.77308431       0.00000000
H       -2.59830552      -0.17537814       1.62252010       0.00000000
H        2.03348072      -2.33743583      -0.65504147       0.00000000
Si      -0.21799278      -1.03371454       3.42499280       0.00000000
Si      -0.07451046       2.64567521      -2.67489855       0.00000000
Si       2.48419244      -0.11381823      -2.84236417       0.00000000
