10
Lattice="16.290000149 0.0 0.0 0.0 16.290000149 0.0 0.0 0.0 29.1751946751" Properties=species:S:1:pos:R:3:initial_magmoms:R:1 pbc="T T T"
Si       1.36873468       1.35839053       1.32805486       0.00000000
Si       1.37086867      -1.35713620      -1.33257702       0.00000000
Si      -1.34330599       1.38272779      -1.34407204       0.00000000
Si      -1.37645614      -1.33631758       1.36093531       0.00000000
Si      -0.06954201       2.69304653       2.60829158       0.00000000
Si      -0.00234576      -2.70453098      -2.67594886       0.00000000
Si      -2.69161301       0.02098152      -2.69467933       0.00000000
Si      -0.02117700      -2.70314633       2.69695500       0.00000000
Si       2.72054405       0.00755856      -2.68934027       0.00000000
Si       2.72111420       2.70987410      -0.03436838       0.00000000
