10
Lattice="16.290000149 0.0 0.0 0.0 16.290000149 0.0 0.0 0.0 29.1751946751" Properties=species:S:1:pos:R:3:initial_magmoms:R:1 pbc="T T T"
Si       1.44611218      -1.19487151      -1.35546116       0.00000000
Si      -1.34464666      -1.46259766       1.23338223       0.00000000
Si      -1.35920829       1.24260121      -1.45626146       0.00000000
Si       1.42630354       1.35773893       1.28183639       0.00000000
Si      -2.70352100      -0.00319284       2.52064433       0.00000000
Si       0.08946468      -2.54225000      -2.69664486       0.00000000
Si       0.09730017       2.67328676       2.70012430       0.00000000
Si      -2.52966696       2.83749290      -0.17264042       0.00000000
Si       2.75752236      -0.03688056       2.65003924       0.00000000
Si       0.04139289      -2.80157052       2.60606347       0.00000000
