10
Lattice="16.290000149 0.0 0.0 0.0 16.290000149 0.0 0.0 0.0 29.1751946751" Properties=species:S:1:pos:R:3:initial_magmoms:R:1 pbc="T T T"
Si       1.41069609       1.39075876      -1.25675069       0.00000000
Si       1.36645245      -1.34732962       1.37173013       0.00000000
Si      -1.28074490       1.34547256       1.45648407       0.00000000
Si      -1.39012508      -1.28572084      -1.43623065       0.00000000
Si      -2.69335767      -2.64012032      -0.00242154       0.00000000
Si      -2.59811004       2.78054175       0.18129466       0.00000000
Si       0.13074028       2.76374025      -2.64376278       0.00000000
Si       2.73969947       0.07521093      -2.67503859       0.00000000
Si       2.71759394      -2.71691138       0.01304131       0.00000000
Si       0.01960176      -2.69503391       2.73978418       0.00000000
