10
Lattice="16.290000149 0.0 0.0 0.0 16.290000149 0.0 0.0 0.0 29.1751946751" Properties=species:S:1:pos:R:3:initial_magmoms:R:1 pbc="T T T"
Si       1.42412068      -1.36014985      -1.27125076       0.00000000
Si       1.35620767       1.35000118       1.35437089       0.00000000
Si      -1.32444217      -1.38683287       1.38307928       0.00000000
Si      -1.33970590       1.33558453      -1.42217404       0.00000000
Si       0.03363885      -2.70503597      -2.54699741       0.00000000
Si      -2.68547168       2.61537581       0.03874466       0.00000000
Si       2.69651630       2.70326036      -0.03148004       0.00000000
Si       2.70145217      -0.03077181       2.70915023       0.00000000
Si       0.01249443       2.68091048       2.74150552       0.00000000
Si      -2.71161713      -0.07120359      -2.73420588       0.00000000
