10
Lattice="16.290000149 0.0 0.0 0.0 16.290000149 0.0 0.0 0.0 29.1751946751" Properties=species:S:1:pos:R:3:initial_magmoms:R:1 pbc="T T T"
Si      -1.38357487       1.34395759       1.33514443       0.00000000
Si      -1.36593280      -1.33918462      -1.37210941       0.00000000
Si       1.34395759       1.37207413      -1.36271499       0.00000000
Si       1.34061814      -1.36505314       1.37587301       0.00000000
Si      -2.68076387       2.64802097      -0.12484066       0.00000000
Si       2.66135923      -2.70159878      -0.03037138       0.00000000
Si       0.00511506       2.70127298       2.66576671       0.00000000
Si      -2.73303848      -0.04663827       2.68017926       0.00000000
Si       2.73294889       0.01078398       2.68665615       0.00000000
Si      -0.01860318      -2.68687262      -2.73844212       0.00000000
