10
Lattice="16.290000149 0.0 0.0 0.0 16.290000149 0.0 0.0 0.0 29.1751946751" Properties=species:S:1:pos:R:3:initial_magmoms:R:1 pbc="T T T"
Si      -1.37101528       1.34574949       1.33841206       0.00000000
Si      -1.38544822      -1.35031069      -1.32475806       0.00000000
Si       1.36265851      -1.36583506       1.33555289       0.00000000
Si       1.37052658       1.35822763      -1.33806195       0.00000000
Si       0.00785178       2.68126886       2.68230905       0.00000000
Si      -0.05510907      -2.76884879      -2.61190930       0.00000000
Si      -0.00169416      -2.71317772       2.68589760       0.00000000
Si       2.69713532      -0.00042354      -2.70509488       0.00000000
Si      -2.72069066      -0.01894527       2.69517531       0.00000000
Si       2.72274320      -0.02191005       2.69835541       0.00000000
