10
Lattice="16.290000149 0.0 0.0 0.0 16.290000149 0.0 0.0 0.0 29.1751946751" Properties=species:S:1:pos:R:3:initial_magmoms:R:1 pbc="T T T"
Si      -0.53175447      -0.25604622       1.38698875       0.00000000
H       -0.66077128      -0.93328669      -1.62759659       0.00000000
H       -1.57767022       0.84874159      -1.17931972       0.00000000
H        1.27580023       1.74216665       0.41166200       0.00000000
Si       0.47473947      -0.98898220      -2.62728463       0.00000000
Si       2.19755360       1.81933238      -0.79444055       0.00000000
Si       2.53922006      -0.30610539      -1.72113226       0.00000000
Si       1.15430941      -1.18467397       2.70086447       0.00000000
Si      -2.32627718      -1.85349251       1.26582417       0.00000000
Si      -1.38406357       1.61688025       2.50124779       0.00000000
