10
Lattice="16.290000149 0.0 0.0 0.0 16.290000149 0.0 0.0 0.0 29.1751946751" Properties=species:S:1:pos:R:3:initial_magmoms:R:1 pbc="T T T"
Si      -1.32405121      -1.32750469       1.36253352       0.00000000
Si       1.26049578      -1.42677595      -1.33022608       0.00000000
Si      -1.15072561       1.49231062      -1.39018110       0.00000000
Si       1.50467473       1.38476404       1.16661626       0.00000000
Si       1.93688102       0.33472692      -2.84193879       0.00000000
H       -2.32213952       0.90525160      -2.40148088       0.00000000
Si       0.52165142       2.28695312      -2.83668726       0.00000000
Si       0.10094913       2.73442314       2.53124514       0.00000000
Si       0.12455126      -2.71254566       2.58987561       0.00000000
Si      -2.58398498       0.07410321       2.72483131       0.00000000
