10
Lattice="16.290000149 0.0 0.0 0.0 16.290000149 0.0 0.0 0.0 29.1751946751" Properties=species:S:1:pos:R:3:initial_magmoms:R:1 pbc="T T T"
Si       1.33174824       1.35907471       1.37912312       0.00000000
Si      -1.29445228      -1.31543380       1.46933282       0.00000000
Si      -1.38823381       1.35874891      -1.35936860       0.00000000
Si       1.40372560      -1.34965909      -1.36462889       0.00000000
Si      -0.10094913      -2.73442314      -2.53124514       0.00000000
Si       0.07202591       2.53855217      -2.77539542       0.00000000
Si      -2.68493411      -2.66031992       0.19358617       0.00000000
Si       2.67761990       2.68819211      -0.00191389       0.00000000
Si       2.70120782       0.01049076       2.74335523       0.00000000
Si       2.76081294      -2.69092883       0.01522070       0.00000000
