10
Lattice="16.290000149 0.0 0.0 0.0 16.290000149 0.0 0.0 0.0 29.1751946751" Properties=species:S:1:pos:R:3:initial_magmoms:R:1 pbc="T T T"
Si       1.31965291       1.34153038       1.39386535       0.00000000
Si      -1.35708733       1.34126974      -1.37984958       0.00000000
Si       1.41827257      -1.38228796      -1.28370565       0.00000000
Si      -1.37457628      -1.36068742       1.36086820       0.00000000
Si       0.02883330      -2.65584017      -2.66059833       0.00000000
Si       2.67498092       2.65660580      -0.00455425       0.00000000
Si       0.13032000       2.53915490      -2.81550256       0.00000000
Si       2.62114247      -2.77868307       0.15796034       0.00000000
Si      -2.86176207      -0.04349430      -2.54646584       0.00000000
Si       2.67335192      -0.02554272       2.74879056       0.00000000
