10
Lattice="16.290000149 0.0 0.0 0.0 16.290000149 0.0 0.0 0.0 29.1751946751" Properties=species:S:1:pos:R:3:initial_magmoms:R:1 pbc="T T T"
Si       1.36011727      -1.35284216       1.35273708       0.00000000
Si      -1.36233271       1.36255426       1.34596843       0.00000000
Si       1.34925184       1.38824359      -1.33514443       0.00000000
Si      -1.34638480      -1.38770276      -1.34001669       0.00000000
Si      -2.78010030      -0.04045947      -2.60149376       0.00000000
Si       0.00029322      -2.71569615       2.69552541       0.00000000
Si       2.79197571       0.05560917      -2.61637311       0.00000000
Si      -0.00224802       2.70647927       2.70877095       0.00000000
Si      -0.02785590       2.72796578      -2.69467933       0.00000000
Si      -2.72668538       0.01521160       2.69631314       0.00000000
