10
Lattice="16.290000149 0.0 0.0 0.0 16.290000149 0.0 0.0 0.0 29.1751946751" Properties=species:S:1:pos:R:3:initial_magmoms:R:1 pbc="T T T"
Si       1.21757700      -1.28662005      -1.60743653       0.00000000
Si      -1.29091523       1.34965909      -1.49563718       0.00000000
Si      -1.43514690      -1.43407062       1.33998752       0.00000000
Si       1.32526205       1.70989616       1.12242809       0.00000000
H        2.83325668       0.22822290       0.50796931       0.00000000
H        0.21525655       2.72243369       1.35740511       0.00000000
H       -1.04280224       0.87456124       3.34400246       0.00000000
Si      -2.62829167      -2.57931285      -0.35214460       0.00000000
Si       3.43872341      -1.08103373       0.94656002       0.00000000
Si       2.59529236      -2.74136268      -0.45113604       0.00000000
