10
Lattice="16.290000149 0.0 0.0 0.0 16.290000149 0.0 0.0 0.0 29.1751946751" Properties=species:S:1:pos:R:3:initial_magmoms:R:1 pbc="T T T"
Si      -0.56373175       1.02372877       2.01285503       0.00000000
Si      -1.62258175      -1.68384845      -0.06377698       0.00000000
Si       2.19546848      -0.72195652      -0.45991777       0.00000000
Si       0.03937293       2.14883184      -0.97363460       0.00000000
Si       0.67364038       2.81406820       1.17654808       0.00000000
Si       1.90716806       0.17065404      -2.70039767       0.00000000
Si       1.93223837      -2.75499741       0.73740305       0.00000000
Si      -3.44403183      -0.22318929       0.10091700       0.00000000
Si      -0.21975210      -0.80091415      -3.38026723       0.00000000
Si      -1.27154854      -2.56582163      -2.19785494       0.00000000
