10
Lattice="16.290000149 0.0 0.0 0.0 16.290000149 0.0 0.0 0.0 29.1751946751" Properties=species:S:1:pos:R:3:initial_magmoms:R:1 pbc="T T T"
Si      -1.36435267      -1.34734265       1.35034471       0.00000000
Si      -1.36265851       1.36583506      -1.33555289       0.00000000
Si       1.36008469       1.34392501       1.36280252       0.00000000
Si       1.36233271      -1.36255426      -1.34596843       0.00000000
Si       0.01032786      -2.69304653       2.68761893       0.00000000
Si       2.71158455       0.02568933      -2.68111287       0.00000000
Si       0.00786807       2.72406269      -2.67361484       0.00000000
Si      -2.74810674       0.01552437      -2.66031095       0.00000000
Si       0.00029322       2.69578325       2.71577300       0.00000000
Si      -2.71414208      -2.71718831      -0.00140041       0.00000000
