10
Lattice="16.290000149 0.0 0.0 0.0 16.290000149 0.0 0.0 0.0 29.1751946751" Properties=species:S:1:pos:R:3:initial_magmoms:R:1 pbc="T T T"
Si      -1.35979147       1.35185824       1.35297048       0.00000000
Si      -1.36008469      -1.34392501      -1.36280252       0.00000000
Si       1.32318784      -1.36427122       1.39320307       0.00000000
Si       1.35588187       1.37769418      -1.35565460       0.00000000
Si       2.69617421       0.02050911       2.70197313       0.00000000
Si       2.69395877      -2.70433876       0.02742468       0.00000000
Si       0.01392795       2.71583624       2.68510987       0.00000000
Si       0.00224802      -2.70647927      -2.70877095       0.00000000
Si      -2.72443736      -2.69126767      -0.01245781       0.00000000
Si      -2.71489142       2.70317891      -0.01604636       0.00000000
