10
Lattice="16.290000149 0.0 0.0 0.0 16.290000149 0.0 0.0 0.0 29.1751946751" Properties=species:S:1:pos:R:3:initial_magmoms:R:1 pbc="T T T"
Si      -1.34631964      -1.28925577       1.37254703       0.00000000
Si       1.25527483       1.31906159       1.46917528       0.00000000
Si       1.36560700      -1.37052658      -1.34205896       0.00000000
Si      -1.42561936       1.36408063      -1.29683740       0.00000000
Si       2.41465043       2.76255597      -0.03436838       0.00000000
Si       2.70875009       0.00957852      -2.65456344       0.00000000
Si      -0.04341285      -2.69474069      -2.69899726       0.00000000
Si      -0.11797218       2.71231760      -2.71883639       0.00000000
Si      -2.75784816      -2.68364720       0.07252953       0.00000000
Si      -2.76892536       0.01796787      -2.68519739       0.00000000
