10
Lattice="16.290000149 0.0 0.0 0.0 16.290000149 0.0 0.0 0.0 29.1751946751" Properties=species:S:1:pos:R:3:initial_magmoms:R:1 pbc="T T T"
Si       1.83482417       1.01864629      -0.94101089       0.00000000
Si       1.40610394      -1.36576990       1.25214684       0.00000000
Si      -1.32105385       1.48852864       1.20789099       0.00000000
Si      -1.30500820      -1.18671022      -1.54990538       0.00000000
Si       0.99673624       2.26062522      -2.65395076       0.00000000
Si      -2.67087584       0.09303219       2.51767342       0.00000000
Si      -2.62615979      -2.59002857      -0.20935536       0.00000000
Si       0.05005917      -2.70523145       2.56791311       0.00000000
Si       2.74295910      -2.52112187      -0.30582606       0.00000000
Si       2.82820467       0.09497070       2.47656558       0.00000000
