10
Lattice="16.290000149 0.0 0.0 0.0 16.290000149 0.0 0.0 0.0 29.1751946751" Properties=species:S:1:pos:R:3:initial_magmoms:R:1 pbc="T T T"
Si      -1.44611218       1.19487151       1.35546116       0.00000000
Si      -1.35664750      -1.34737849      -1.34118370       0.00000000
Si       1.28062207      -1.49420026       1.33785948       0.00000000
Si       1.30873861       1.36868581      -1.48598019       0.00000000
Si       2.16104771      -0.50424066      -2.60023923       0.00000000
Si       0.36652500      -2.10168695      -2.72140381       0.00000000
Si      -0.01980864       2.55261044       2.63729756       0.00000000
Si      -2.80532047       2.43747272      -0.10080030       0.00000000
Si       2.69356781      -0.20026926       2.68321931       0.00000000
Si      -2.79075884      -0.26772615       2.58884339       0.00000000
