10
Lattice="16.290000149 0.0 0.0 0.0 16.290000149 0.0 0.0 0.0 29.1751946751" Properties=species:S:1:pos:R:3:initial_magmoms:R:1 pbc="T T T"
Si      -1.35604477      -1.33946155       1.31576627       0.00000000
Si      -1.40610394       1.36576990      -1.25214684       0.00000000
Si       1.33685515      -1.15535197      -1.55797290       0.00000000
Si       1.42210072       1.46074060       1.22441874       0.00000000
Si       0.42872022       2.38441619      -2.19315773       0.00000000
Si       2.17308602       0.84173689      -2.64687198       0.00000000
Si       0.07778475      -2.65878866       2.59804525       0.00000000
Si      -2.69179220       0.10235007       2.60466802       0.00000000
Si      -2.65948913      -2.63585234      -0.15967876       0.00000000
Si       2.76480399      -2.52081236      -0.22345282       0.00000000
