10
Lattice="16.290000149 0.0 0.0 0.0 16.290000149 0.0 0.0 0.0 29.1751946751" Properties=species:S:1:pos:R:3:initial_magmoms:R:1 pbc="T T T"
Si       1.34830702       1.36174627       1.35060729       0.00000000
Si      -1.34370184       1.35783667      -1.36329850       0.00000000
Si       1.35928648      -1.35565381      -1.35375821       0.00000000
Si      -1.36841214      -1.36477621       1.34392617       0.00000000
Si      -0.03391578      -2.69905754      -2.68242575       0.00000000
Si       2.69161301      -0.02098152       2.69467933       0.00000000
Si      -2.67886495      -0.01865205      -2.70885848       0.00000000
Si      -0.04030146       2.71275743       2.68382616       0.00000000
Si       2.69610905       2.70943427      -0.02800819       0.00000000
Si       2.68926725      -2.72551250       0.01873047       0.00000000
