10
Lattice="16.290000149 0.0 0.0 0.0 16.290000149 0.0 0.0 0.0 29.1751946751" Properties=species:S:1:pos:R:3:initial_magmoms:R:1 pbc="T T T"
Si      -1.34830702      -1.36174627      -1.35060729       0.00000000
Si       1.34330599      -1.38272779       1.34407204       0.00000000
Si      -1.38860848       1.35101116       1.33321887       0.00000000
Si       1.34780203       1.34768800      -1.37861547       0.00000000
Si       2.71204067      -0.02433726       2.67212691       0.00000000
Si      -0.03749958       2.73735534       2.65590550       0.00000000
Si      -2.69200886      -0.00390960      -2.71390578       0.00000000
Si       2.71303436       2.70335810      -0.03197601       0.00000000
Si       0.01097946      -2.71740008      -2.70436550       0.00000000
Si      -0.03315015      -2.71904537       2.70500735       0.00000000
