10
Lattice="16.290000149 0.0 0.0 0.0 16.290000149 0.0 0.0 0.0 29.1751946751" Properties=species:S:1:pos:R:3:initial_magmoms:R:1 pbc="T T T"
Si      -1.36782244      -1.34863282       1.35112952       0.00000000
Si       1.30344436       1.29639079       1.47544503       0.00000000
Si      -1.37277460       1.41159367      -1.30182344       0.00000000
Si       1.36337527      -1.34729704      -1.39221403       0.00000000
Si       2.65948913       2.63585234       0.15967876       0.00000000
Si       2.71112843      -2.70951572      -0.01522653       0.00000000
Si      -0.01617597      -2.66748752       2.75830751       0.00000000
Si      -2.71288775      -2.71735121      -0.01093778       0.00000000
Si      -2.73108368       0.02564046       2.69954867       0.00000000
Si      -2.78572035       0.11766267      -2.64718328       0.00000000
