10
Lattice="16.290000149 0.0 0.0 0.0 16.290000149 0.0 0.0 0.0 29.1751946751" Properties=species:S:1:pos:R:3:initial_magmoms:R:1 pbc="T T T"
Si       2.26773907      -0.48676149       0.12101871       0.00000000
Si      -0.29491416       0.76183932       2.19721309       0.00000000
Si      -0.56832553       1.73462763      -1.52387877       0.00000000
Si      -1.52894683      -1.83863603      -0.42680392       0.00000000
H       -1.32719518       1.89259991       2.18242126       0.00000000
Si       2.54537768      -1.30469869      -2.03424045       0.00000000
Si      -1.11448036      -1.17444385       3.22517190       0.00000000
Si      -2.66950748      -1.97403851       1.63573646       0.00000000
Si      -3.05632983      -0.84233962      -1.93043511       0.00000000
Si      -2.55190997       2.64121175      -0.54432161       0.00000000
