10
Lattice="16.290000149 0.0 0.0 0.0 16.290000149 0.0 0.0 0.0 29.1751946751" Properties=species:S:1:pos:R:3:initial_magmoms:R:1 pbc="T T T"
H       -1.13551075       0.05569551       0.99968805       0.00000000
Si       0.21739005      -2.13693851      -0.90559804       0.00000000
Si       2.06448059       0.68287681       0.90615237       0.00000000
Si      -0.23824125       1.51273828      -1.83643263       0.00000000
H       -0.47473947       0.98898220       2.62728463       0.00000000
H       -2.05240970       1.83772379       1.44796491       0.00000000
Si       2.34812207      -1.56159199      -1.90782433       0.00000000
Si       3.31657887       0.44158932      -1.03525261       0.00000000
H        2.53201988      -2.34461972       0.78883891       0.00000000
Si       1.72281413       2.80831458       1.83284408       0.00000000
