10
Lattice="16.290000149 0.0 0.0 0.0 16.290000149 0.0 0.0 0.0 29.1751946751" Properties=species:S:1:pos:R:3:initial_magmoms:R:1 pbc="T T T"
Si      -1.55668382       1.07755093      -1.37100075       0.00000000
Si       1.38456856      -1.47945781      -1.21733500       0.00000000
Si      -0.85048462      -1.48152664       1.63561976       0.00000000
Si       0.44238753       1.81692146       1.47903649       0.00000000
H        0.34668378      -1.12076830       2.52878917       0.00000000
Si      -1.86252205       2.01368837       2.07170140       0.00000000
Si      -0.24267213       2.56298717      -2.64035512       0.00000000
Si      -3.01430163       2.20107224       0.04434630       0.00000000
Si       2.70668126      -0.12606831      -2.60050180       0.00000000
Si      -0.10285506      -2.82362718      -2.53091896       0.00000000
