10
Lattice="16.290000149 0.0 0.0 0.0 16.290000149 0.0 0.0 0.0 29.1751946751" Properties=species:S:1:pos:R:3:initial_magmoms:R:1 pbc="T T T"
Si       1.34335160       1.36018243       1.35448759       0.00000000
Si      -1.33661080       1.37490859      -1.35358316       0.00000000
Si       1.36439828      -1.35180937      -1.35049059       0.00000000
Si      -1.35509995      -1.34760655       1.37283879       0.00000000
Si      -2.69539229       0.00957852      -2.68478894       0.00000000
Si       2.67248855       0.00166158       2.72117041       0.00000000
Si      -0.00581553      -2.72113049      -2.67521948       0.00000000
Si       2.69257412      -2.71249679       0.02369026       0.00000000
Si      -2.68394042       2.72259659       0.01274956       0.00000000
Si       2.69250896       2.72572427      -0.01059060       0.00000000
