10
Lattice="16.290000149 0.0 0.0 0.0 16.290000149 0.0 0.0 0.0 29.1751946751" Properties=species:S:1:pos:R:3:initial_magmoms:R:1 pbc="T T T"
Si      -0.96335803       1.45125982       1.51754775       0.00000000
Si       1.55582533      -1.28357056       1.13161828       0.00000000
Si       1.64043560       0.99939151      -1.38958535       0.00000000
Si      -1.88937938      -1.50897529      -0.31605488       0.00000000
H       -0.38055069      -2.35084250      -2.01641440       0.00000000
H        0.88909192      -0.69766813      -3.02176244       0.00000000
H       -2.48997539      -1.59611050      -1.71663928       0.00000000
Si      -2.64942191       2.37988757       0.20367203       0.00000000
Si       0.17853840      -2.73072531       2.30778707       0.00000000
H       -2.11766744       2.63593379      -1.18331672       0.00000000
