10
Lattice="16.290000149 0.0 0.0 0.0 16.290000149 0.0 0.0 0.0 29.1751946751" Properties=species:S:1:pos:R:3:initial_magmoms:R:1 pbc="T T T"
Si      -0.11916135       2.30597821       0.23798206       0.00000000
Si       1.59936850       0.07392402      -1.79275736       0.00000000
Si       0.28830042      -0.89261056       2.24047990       0.00000000
Si      -2.12692016      -0.97156819      -0.67986956       0.00000000
H        1.09889083      -2.74755288       0.05114412       0.00000000
H        2.53627157      -1.83725138       0.60556034       0.00000000
Si      -1.86779513       1.97817780       1.72676307       0.00000000
Si      -1.90716806      -0.17065404       2.70039767       0.00000000
Si       3.18013383      -1.01195110      -0.47377599       0.00000000
Si      -1.04485690      -2.39177927      -2.17786993       0.00000000
