10
Lattice="16.290000149 0.0 0.0 0.0 16.290000149 0.0 0.0 0.0 29.1751946751" Properties=species:S:1:pos:R:3:initial_magmoms:R:1 pbc="T T T"
Si       1.30020265       1.28252393       1.50588351       0.00000000
Si      -1.33283152      -1.36604113       1.40665867       0.00000000
Si       1.47973474      -1.30464412      -1.33403578       0.00000000
Si      -1.36062226       1.38341442      -1.39883388       0.00000000
Si      -0.00428427      -2.54996576      -2.71661908       0.00000000
Si      -2.60571584       2.72968845       0.08742201       0.00000000
Si       2.36011151       2.36668208      -1.87039256       0.00000000
Si       2.70169652      -2.71560248       0.11203041       0.00000000
Si       3.09733176       0.17748037      -2.26924664       0.00000000
Si       2.28809342       3.07005171       0.35499793       0.00000000
