10
Lattice="16.290000149 0.0 0.0 0.0 16.290000149 0.0 0.0 0.0 29.1751946751" Properties=species:S:1:pos:R:3:initial_magmoms:R:1 pbc="T T T"
H       -1.03228102       1.13076059      -0.01479182       0.00000000
Si      -0.81956620      -1.93628317       1.02795881       0.00000000
Si       0.29491416      -0.76183932      -2.19721309       0.00000000
Si       1.87682142       0.87742991       1.12931344       0.00000000
Si       2.56265323      -1.24860082      -2.07619438       0.00000000
Si      -2.37459332      -2.73587783      -0.56147662       0.00000000
Si       0.95166181       1.69920503       3.12445912       0.00000000
H        0.11893329       3.28142016      -1.71707691       0.00000000
Si      -2.85896019       0.50364445       2.41984900       0.00000000
Si      -1.29313279       2.20740416       2.84385210       0.00000000
