10
Lattice="16.290000149 0.0 0.0 0.0 16.290000149 0.0 0.0 0.0 29.1751946751" Properties=species:S:1:pos:R:3:initial_magmoms:R:1 pbc="T T T"
Si       1.17141391       0.58705903       1.01129977       0.00000000
Si      -1.31619943      -0.49992381      -0.98539220       0.00000000
Si      -0.09588294      -2.35154297      -1.64711479       0.00000000
Si      -0.36237105       1.86554711       2.20853306       0.00000000
Si       2.84379094       1.38170152      -0.43520638       0.00000000
Si      -3.09361764      -1.08892135       0.47485547       0.00000000
Si       2.32213952      -0.90525160       2.40148088       0.00000000
Si      -2.40227003       0.82358983      -2.56759218       0.00000000
Si      -1.83184310       3.07139808       0.74641818       0.00000000
H       -0.11262906       1.00626589      -3.53542092       0.00000000
