10
Lattice="16.290000149 0.0 0.0 0.0 16.290000149 0.0 0.0 0.0 29.1751946751" Properties=species:S:1:pos:R:3:initial_magmoms:R:1 pbc="T T T"
Si      -1.34653141      -1.33063726       1.34496189       0.00000000
Si       1.31360932      -1.32432163      -1.40009717       0.00000000
Si      -1.20286990       1.39639510      -1.44166599       0.00000000
Si       1.43008282       1.40401882       1.24048551       0.00000000
Si       2.30150009       0.46320615      -2.55098274       0.00000000
Si       0.67000771       2.19967130      -2.63673535       0.00000000
Si      -2.64842822      -2.65733885      -0.08103410       0.00000000
Si      -2.70128927       0.06533919       2.63444714       0.00000000
Si       2.69905754      -2.64720918      -0.03615390       0.00000000
Si       0.05220945       2.75314035       2.59083023       0.00000000
