10
Lattice="16.290000149 0.0 0.0 0.0 16.290000149 0.0 0.0 0.0 29.1751946751" Properties=species:S:1:pos:R:3:initial_magmoms:R:1 pbc="T T T"
H       -0.50233473       0.56119051       0.18683795       0.00000000
H       -1.77197735      -1.09198387       1.19218598       0.00000000
Si       2.03941028       0.68937652       1.20589832       0.00000000
Si       0.81283843      -0.45642951      -2.37054292       0.00000000
Si      -0.85486663      -1.98061967      -1.63022235       0.00000000
Si      -2.48345939      -1.18079695      -0.13397249       0.00000000
Si       0.24900894       2.25825014       1.81901504       0.00000000
Si      -0.68623255       1.34421823      -2.50982530       0.00000000
Si       2.69138495       0.40018014      -1.13608208       0.00000000
Si       1.18040599      -1.15748596       2.47563197       0.00000000
