10
Lattice="16.290000149 0.0 0.0 0.0 16.290000149 0.0 0.0 0.0 29.1751946751" Properties=species:S:1:pos:R:3:initial_magmoms:R:1 pbc="T T T"
Si      -1.43394355       1.32251995       1.28140373       0.00000000
Si      -1.37735209      -1.33871221      -1.33362732       0.00000000
Si       1.34856766       1.35870004      -1.35308718       0.00000000
Si       1.35599590      -1.33524244       1.37820702       0.00000000
Si      -0.00812871       2.71078634       2.46232808       0.00000000
Si       0.00094482      -2.70550838      -2.64470222       0.00000000
Si       2.72741843       0.01184283      -2.67472350       0.00000000
Si      -2.72873792       0.03749958      -2.67530700       0.00000000
Si      -0.01366731       2.75314035      -2.65788941       0.00000000
Si      -2.72973161      -2.69019578       0.02879592       0.00000000
