10
Lattice="16.290000149 0.0 0.0 0.0 16.290000149 0.0 0.0 0.0 29.1751946751" Properties=species:S:1:pos:R:3:initial_magmoms:R:1 pbc="T T T"
Si      -1.34913455       1.33771852      -1.37152590       0.00000000
Si       1.32180319       1.46303749       1.27352642       0.00000000
Si      -1.40895958      -1.29142560       1.39299884       0.00000000
Si       1.41960835      -1.35535571      -1.33418165       0.00000000
H        2.22050621       0.55557046       2.08027891       0.00000000
H        0.20672010       0.22341735       3.50840469       0.00000000
Si      -2.63808899      -2.65009746      -0.05633730       0.00000000
Si      -0.03124422      -2.74616823       2.54929934       0.00000000
Si      -2.61899040       2.69821046       0.05479102       0.00000000
Si       0.07630236      -2.70146846      -2.72254164       0.00000000
