10
Lattice="16.290000149 0.0 0.0 0.0 16.290000149 0.0 0.0 0.0 29.1751946751" Properties=species:S:1:pos:R:3:initial_magmoms:R:1 pbc="T T T"
Si       0.07201809      -0.70336963      -2.22539049       0.00000000
Si      -0.98789077      -1.78752778       1.15088557       0.00000000
Si       1.84331126       0.88283656       1.17889376       0.00000000
Si      -1.63149238       1.73646515      -0.08575261       0.00000000
H        2.53715123      -0.94962556      -0.73929360       0.00000000
Si      -2.30150009      -0.46320615       2.55098274       0.00000000
Si       0.55625464       2.33061032       2.50951896       0.00000000
Si      -2.12921705      -0.31229559      -3.03223050       0.00000000
Si      -2.07546005       1.98254189      -2.36776544       0.00000000
Si       2.00565740       0.32431761      -3.12541607       0.00000000
