10
Lattice="16.290000149 0.0 0.0 0.0 16.290000149 0.0 0.0 0.0 29.1751946751" Properties=species:S:1:pos:R:3:initial_magmoms:R:1 pbc="T T T"
Si      -0.73722025       2.18920172       0.39885409       0.00000000
Si       1.90610921       0.55425259       1.27723167       0.00000000
Si      -1.61759701      -1.48212449       0.93521087       0.00000000
Si       0.71446312       0.32952227      -2.26694180       0.00000000
H        1.45671697      -2.18581991      -1.29990080       0.00000000
H        1.72791290       1.94294578       1.88495098       0.00000000
Si       2.52097526       1.64832484      -1.64241758       0.00000000
Si       1.19641906       3.21688896      -0.50117149       0.00000000
H       -0.44175222      -2.60215974      -2.53695823       0.00000000
Si      -0.39563523      -2.89308285       2.38127706       0.00000000
