10
Lattice="16.290000149 0.0 0.0 0.0 16.290000149 0.0 0.0 0.0 29.1751946751" Properties=species:S:1:pos:R:3:initial_magmoms:R:1 pbc="T T T"
Si       1.58076532      -1.08587512       1.31898138       0.00000000
Si      -1.23051403      -1.13823118      -1.62459154       0.00000000
Si      -1.59936850      -0.07392402       1.79275736       0.00000000
Si       1.29759625       1.59138640      -1.27373065       0.00000000
H        0.93690307      -1.91117540       2.39831770       0.00000000
H       -0.50047767      -2.82147690       1.84390148       0.00000000
Si      -1.71852986       2.23205419       2.03073943       0.00000000
Si      -2.64422540      -2.46570329      -0.38511257       0.00000000
Si       2.81812116      -2.45400707      -0.09633649       0.00000000
Si       0.13224222      -2.50725908      -2.88694386       0.00000000
