10
Lattice="16.290000149 0.0 0.0 0.0 16.290000149 0.0 0.0 0.0 29.1751946751" Properties=species:S:1:pos:R:3:initial_magmoms:R:1 pbc="T T T"
Si       1.31559670      -1.26216550       1.47417591       0.00000000
Si      -0.85647934      -1.93526831      -1.04482499       0.00000000
Si      -1.42965928       1.37166688       1.28696743       0.00000000
Si       1.21507111       1.43452999      -1.44360322       0.00000000
Si       2.57553047      -2.66377340       0.11187812       0.00000000
Si       2.61229700       2.75690334      -0.07877886       0.00000000
Si      -0.05774805       2.77845501       2.59899928       0.00000000
Si       2.74885608       0.15604191      -2.64083651       0.00000000
Si      -0.09457974      -2.66665673       2.73247580       0.00000000
Si      -1.51617547      -1.51993846      -3.17728081       0.00000000
