10
Lattice="16.290000149 0.0 0.0 0.0 16.290000149 0.0 0.0 0.0 29.1751946751" Properties=species:S:1:pos:R:3:initial_magmoms:R:1 pbc="T T T"
Si      -1.34061814      -1.34617303       1.37482270       0.00000000
Si       1.32230818      -1.37072206      -1.37531868       0.00000000
Si      -1.35993808       1.32460507      -1.39218194       0.00000000
Si       1.34469064       1.32701599       1.40694459       0.00000000
Si       2.70001865       2.67361256       0.01257451       0.00000000
Si       2.62607834      -2.75097378      -0.00075856       0.00000000
Si      -2.73370638       2.68221368      -0.07042892       0.00000000
Si      -2.72922662       0.00539199       2.69505861       0.00000000
Si       2.67740813      -0.02311551      -2.74815746       0.00000000
Si      -0.00653229       2.69948108      -2.73540790       0.00000000
