10
Lattice="16.290000149 0.0 0.0 0.0 16.290000149 0.0 0.0 0.0 29.1751946751" Properties=species:S:1:pos:R:3:initial_magmoms:R:1 pbc="T T T"
Si       0.91846279      -1.89739406       0.88777200       0.00000000
Si      -1.48520818      -1.00111825      -1.48843091       0.00000000
Si      -1.62859276       0.79982272       1.49624986       0.00000000
Si       1.66770506       1.52419015      -0.74032056       0.00000000
H        0.85486663       1.98061967       1.63022235       0.00000000
H       -0.91711072       0.88863580       2.82240833       0.00000000
H        0.35253189       2.54181017       1.81706030       0.00000000
Si      -1.96209794       2.74949139       0.12262334       0.00000000
Si       0.16863408       3.32483790      -0.87960294       0.00000000
Si      -0.06768495      -2.22843944      -2.78946954       0.00000000
