10
Lattice="16.290000149 0.0 0.0 0.0 16.290000149 0.0 0.0 0.0 29.1751946751" Properties=species:S:1:pos:R:3:initial_magmoms:R:1 pbc="T T T"
Si       1.47776202      -1.20881575      -1.32863837       0.00000000
Si      -1.14878710      -1.64716336       1.17859034       0.00000000
Si      -1.76904515       1.16564725      -1.02862984       0.00000000
Si       1.45804950       1.37818288       1.35498357       0.00000000
H       -2.04827204      -0.91057843       2.16185275       0.00000000
Si      -3.37981665       1.31647636       0.65489559       0.00000000
Si       2.65307087       0.31161141      -2.65351313       0.00000000
Si       2.90672247      -2.40666833       0.11460016       0.00000000
Si      -0.94947895       3.10193043      -2.05658865       0.00000000
Si       0.25305668      -2.81562879       2.64382697       0.00000000
