10
Lattice="16.290000149 0.0 0.0 0.0 16.290000149 0.0 0.0 0.0 29.1751946751" Properties=species:S:1:pos:R:3:initial_magmoms:R:1 pbc="T T T"
Si      -1.35948196       1.35765585       1.33975411       0.00000000
Si       1.34897491       1.37368521      -1.33680742       0.00000000
Si       1.38293956      -1.35902747       1.32210312       0.00000000
Si      -1.35599590      -1.37173367      -1.33806195       0.00000000
Si       2.67931406      -0.04485289      -2.62395866       0.00000000
Si       0.00584811      -2.71450209       2.65397993       0.00000000
Si      -2.72790714      -0.01186564      -2.65088736       0.00000000
Si       0.01373247       2.70505064       2.68312595       0.00000000
Si       2.73272898       0.01081819       2.67384824       0.00000000
Si      -2.70430292       0.00266667       2.70512405       0.00000000
