10
Lattice="16.290000149 0.0 0.0 0.0 16.290000149 0.0 0.0 0.0 29.1751946751" Properties=species:S:1:pos:R:3:initial_magmoms:R:1 pbc="T T T"
H        0.64449757      -0.88312978       1.04333414       0.00000000
Si      -1.41752323       1.22732119       1.30103863       0.00000000
Si      -1.44404335      -1.32194980      -1.21339635       0.00000000
Si       1.50345298       1.36748035      -1.15186586       0.00000000
Si       0.06768495       2.22843944       2.78946954       0.00000000
Si       0.07868070      -2.64098858      -2.40575738       0.00000000
Si       1.06054417      -3.50191183      -0.41738034       0.00000000
Si       2.77246029      -0.58041271       2.38784381       0.00000000
Si       0.16091262       2.71124246      -2.54086770       0.00000000
Si      -2.68125257       0.06553467      -2.58821905       0.00000000
