10
Lattice="16.290000149 0.0 0.0 0.0 16.290000149 0.0 0.0 0.0 29.1751946751" Properties=species:S:1:pos:R:3:initial_magmoms:R:1 pbc="T T T"
Si       1.32401863       1.33565279       1.33849958       0.00000000
Si      -1.41600826       1.34338076      -1.25526275       0.00000000
Si       1.23167062      -1.19983849      -1.59717561       0.00000000
Si      -1.46043109      -1.43755847       1.21400903       0.00000000
Si      -2.45381159      -0.51388288      -2.20356744       0.00000000
Si      -0.70944580      -2.05656218      -2.65728169       0.00000000
Si       2.62289971       2.62585175      -0.13306223       0.00000000
Si       2.64138378      -0.09941640       2.61368899       0.00000000
Si       2.53200359      -2.73060981      -0.27902573       0.00000000
Si      -0.11870523       2.66828720       2.61972826       0.00000000
