10
Lattice="16.290000149 0.0 0.0 0.0 16.290000149 0.0 0.0 0.0 29.1751946751" Properties=species:S:1:pos:R:3:initial_magmoms:R:1 pbc="T T T"
Si       0.12618234       1.06461667       1.07685644       0.00000000
Si      -2.37592910      -1.40204773      -1.02445779       0.00000000
H       -1.15121431      -2.15065958       1.70228508       0.00000000
H        1.25805879       1.84787246      -1.98659736       0.00000000
Si      -1.50739516       0.37175409       2.61304714       0.00000000
H       -2.39375036       1.81837127      -0.52579536       0.00000000
Si      -0.39234465      -2.30863185      -2.00401495       0.00000000
Si       2.32212323       1.23437476       1.72865946       0.00000000
Si      -0.21660813       3.21377268       0.18027353       0.00000000
Si      -3.04717485      -0.40951431       1.04578485       0.00000000
