10
Lattice="16.290000149 0.0 0.0 0.0 16.290000149 0.0 0.0 0.0 29.1751946751" Properties=species:S:1:pos:R:3:initial_magmoms:R:1 pbc="T T T"
Si      -1.32401863      -1.33565279      -1.33849958       0.00000000
Si       1.31736514      -1.43506919       1.27518941       0.00000000
Si      -1.44272386       1.33263441       1.28122867       0.00000000
Si       1.29888108       1.29019896      -1.47156181       0.00000000
Si       2.63135468      -0.05078245       2.63875048       0.00000000
Si      -0.07371225       2.68138127       2.61879465       0.00000000
Si      -2.74002689       0.00772798      -2.59376233       0.00000000
Si       2.66151561       2.68555151      -0.15410338       0.00000000
Si      -0.14972139       2.67523994      -2.69890390       0.00000000
Si      -0.08117307      -2.76972519       2.60931271       0.00000000
