10
Lattice="16.290000149 0.0 0.0 0.0 16.290000149 0.0 0.0 0.0 29.1751946751" Properties=species:S:1:pos:R:3:initial_magmoms:R:1 pbc="T T T"
Si      -1.40184378       1.16846542      -1.46523663       0.00000000
Si      -1.46025972      -1.17980326       1.41602683       0.00000000
Si       1.46150656      -1.28445022      -1.33847041       0.00000000
Si       1.21955444       1.48861279       1.40080029       0.00000000
H       -2.30132872       1.90505036      -0.48197422       0.00000000
Si       2.65366579       0.40896045      -2.52922680       0.00000000
Si      -0.07202591      -2.53855217       2.77539542       0.00000000
Si      -2.85748562      -2.50217660       0.05120247       0.00000000
Si       2.60559399       0.14963994       2.77348153       0.00000000
Si      -0.25305668       2.81562879      -2.64382697       0.00000000
