10
Lattice="16.290000149 0.0 0.0 0.0 16.290000149 0.0 0.0 0.0 29.1751946751" Properties=species:S:1:pos:R:3:initial_magmoms:R:1 pbc="T T T"
Si      -1.37376829       1.35760861       1.32175302       0.00000000
Si      -1.37371942      -1.36397800      -1.33213939       0.00000000
Si       1.35340579       1.37487601      -1.34322596       0.00000000
Si       1.35993808      -1.32460507       1.39218194       0.00000000
Si      -0.01369989       2.66742236       2.70906270       0.00000000
Si       2.68224626      -2.69532713       0.01686326       0.00000000
Si      -0.01392795      -2.71583624      -2.68510987       0.00000000
Si      -2.71182890       0.02454903       2.69823870       0.00000000
Si       2.70073541       0.02718801      -2.70955868       0.00000000
Si      -2.72976419       2.69285105      -0.05645400       0.00000000
