10
Lattice="16.290000149 0.0 0.0 0.0 16.290000149 0.0 0.0 0.0 29.1751946751" Properties=species:S:1:pos:R:3:initial_magmoms:R:1 pbc="T T T"
H        0.86960908       1.91119169       1.25053637       0.00000000
Si      -2.12651291      -0.35157078       1.22214890       0.00000000
Si       2.17714223       1.39540141       0.70606889       0.00000000
Si      -0.65342449      -2.22788558       1.57158021       0.00000000
Si      -2.53684172      -0.99201214      -0.99971722       0.00000000
Si       1.77707612       1.60788817      -1.64615201       0.00000000
H        2.39375036      -1.81837127       0.52579536       0.00000000
Si      -0.75052918      -1.90347023      -2.28911495       0.00000000
Si       2.51993270      -0.75375460       1.60265179       0.00000000
Si       0.66248173      -0.07328871      -3.02365883       0.00000000
