10
Lattice="16.290000149 0.0 0.0 0.0 16.290000149 0.0 0.0 0.0 29.1751946751" Properties=species:S:1:pos:R:3:initial_magmoms:R:1 pbc="T T T"
Si       1.34653141       1.33063726      -1.34496189       0.00000000
Si      -1.35475786       1.39597645       1.28948525       0.00000000
Si       1.37191123      -1.35986804       1.31282541       0.00000000
Si      -1.30189681      -1.32670160      -1.42599599       0.00000000
Si      -2.67934827       0.01229895       2.65079984       0.00000000
Si      -0.01542663      -2.71904049       2.61695661       0.00000000
Si       0.03844440       2.73938018       2.61815279       0.00000000
Si       2.72790714       0.01186564       2.65088736       0.00000000
Si      -2.58185262       0.04627989      -2.81300809       0.00000000
Si      -2.64918734       2.74863290      -0.14205402       0.00000000
