10
Lattice="16.290000149 0.0 0.0 0.0 16.290000149 0.0 0.0 0.0 29.1751946751" Properties=species:S:1:pos:R:3:initial_magmoms:R:1 pbc="T T T"
Si       1.08607060      -1.32351364       1.58219998       0.00000000
Si       0.85900429       1.84686248      -1.26973365       0.00000000
Si      -1.01600731       1.13277403       1.86458669       0.00000000
Si      -0.70648102      -2.08008641      -0.99621620       0.00000000
H        2.28964097       0.18267606      -0.96782873       0.00000000
H       -1.18040599       1.15748596      -2.47563197       0.00000000
H        1.42003189      -1.72851563      -2.21836510       0.00000000
H       -2.95238334       0.06550209      -1.28344599       0.00000000
H       -1.68274073       1.71867647      -2.28879402       0.00000000
Si      -0.93139705       3.41573610      -0.65661693       0.00000000
