10
Lattice="16.290000149 0.0 0.0 0.0 16.290000149 0.0 0.0 0.0 29.1751946751" Properties=species:S:1:pos:R:3:initial_magmoms:R:1 pbc="T T T"
Si       1.34623982      -1.36069883       1.35510027       0.00000000
Si      -1.31398953      -1.38428675      -1.36356107       0.00000000
Si      -1.38011976       1.34863771       1.34030844       0.00000000
Si       1.32459041       1.38367750      -1.36131458       0.00000000
Si      -2.63135468       0.05078245      -2.63875048       0.00000000
Si       2.67934827      -0.01229895      -2.65079984       0.00000000
Si      -0.00990595       2.71795883       2.66503733       0.00000000
Si       2.66392164      -2.73133944      -0.03384323       0.00000000
Si       2.70295248       0.00223336       2.70521158       0.00000000
Si      -0.02967061      -2.70882666       2.70535745       0.00000000
