10
Lattice="16.290000149 0.0 0.0 0.0 16.290000149 0.0 0.0 0.0 29.1751946751" Properties=species:S:1:pos:R:3:initial_magmoms:R:1 pbc="T T T"
Si       1.32054886      -1.44063874       1.27577291       0.00000000
Si      -1.34887717      -1.36146934      -1.34824410       0.00000000
Si       1.38857590       1.36018243      -1.31297129       0.00000000
Si      -1.29059155       1.36805050       1.41190437       0.00000000
Si       2.74636371      -0.05237235       2.45669727       0.00000000
Si       0.01901043       2.70156620      -2.66661279       0.00000000
Si      -2.66409920       2.71955036       0.06587759       0.00000000
Si      -2.71621091      -0.00461007      -2.67638648       0.00000000
Si      -0.06294456      -2.77632102       2.61608136       0.00000000
Si       2.74082510      -0.01001835      -2.66352022       0.00000000
