10
Lattice="16.290000149 0.0 0.0 0.0 16.290000149 0.0 0.0 0.0 29.1751946751" Properties=species:S:1:pos:R:3:initial_magmoms:R:1 pbc="T T T"
Si       1.25209828      -0.24128748      -1.94140498       0.00000000
Si      -0.34166646       2.12543777       0.92669171       0.00000000
Si      -2.06448059      -0.68287681      -0.90615237       0.00000000
Si       1.21888297      -1.33043689       1.51486363       0.00000000
H        2.56435553      -0.69206437      -1.32796734       0.00000000
H        0.46753929      -3.02749653      -0.11731346       0.00000000
H       -2.53922006       0.30610539       1.72113226       0.00000000
H       -1.26341983       2.04827204       2.13279426       0.00000000
H       -3.19999134      -0.62718130       0.09353567       0.00000000
Si       0.28364148      -2.24446880      -2.81397670       0.00000000
