10
Lattice="16.290000149 0.0 0.0 0.0 16.290000149 0.0 0.0 0.0 29.1751946751" Properties=species:S:1:pos:R:3:initial_magmoms:R:1 pbc="T T T"
Si      -1.39320226      -1.34340373      -1.32866754       0.00000000
Si      -1.35928648       1.35565381       1.35375821       0.00000000
Si       1.32998077      -1.36985869       1.37248868       0.00000000
Si       1.36029646       1.34439742      -1.37228446       0.00000000
Si      -0.03844440      -2.73938018      -2.61815279       0.00000000
Si       2.70690932       2.70125669      -0.00980287       0.00000000
Si      -2.70298832       2.71349048      -0.00954029       0.00000000
Si       2.68946273      -2.72751455       0.03273457       0.00000000
Si       2.70319520      -0.02246391       2.71586052       0.00000000
Si      -0.01097946       2.71740008       2.70436550       0.00000000
