10
Lattice="16.290000149 0.0 0.0 0.0 16.290000149 0.0 0.0 0.0 29.1751946751" Properties=species:S:1:pos:R:3:initial_magmoms:R:1 pbc="T T T"
Si      -1.37040604      -1.37244880      -1.32977620       0.00000000
Si       1.34730356       1.35381304      -1.37628146       0.00000000
Si       1.40702270      -1.33920091       1.33088486       0.00000000
Si      -1.39660036       1.33845157       1.34742719       0.00000000
Si      -0.01841422       2.69998607       2.68190060       0.00000000
Si       0.07045099      -2.68828985       2.70217736       0.00000000
Si      -2.70258596      -0.00614459      -2.70168138       0.00000000
Si      -2.70037052       2.71870328      -0.02713293       0.00000000
Si      -0.00063694      -2.71228502      -2.71014218       0.00000000
Si       2.70269673       2.72197757      -0.03877383       0.00000000
