10
Lattice="16.290000149 0.0 0.0 0.0 16.290000149 0.0 0.0 0.0 29.1751946751" Properties=species:S:1:pos:R:3:initial_magmoms:R:1 pbc="T T T"
Si       1.44404335       1.32194980       1.21339635       0.00000000
Si      -1.23720922       1.38748447      -1.37482270       0.00000000
Si       1.52272405      -1.31903878      -1.19236103       0.00000000
Si      -1.15937560      -1.44349438       1.50354366       0.00000000
H        2.08854092       0.43882002       2.25673048       0.00000000
Si       2.50458752      -2.17996203       0.79601601       0.00000000
Si       0.75595375      -2.50776244       2.28479702       0.00000000
Si       0.02652012       2.54927099       2.51443498       0.00000000
Si      -2.41465043      -2.76255597       0.03436838       0.00000000
Si      -2.53262261      -0.05023836      -2.68446801       0.00000000
