10
Lattice="16.290000149 0.0 0.0 0.0 16.290000149 0.0 0.0 0.0 29.1751946751" Properties=species:S:1:pos:R:3:initial_magmoms:R:1 pbc="T T T"
Si      -1.24509358       1.34627403       1.48625590       0.00000000
Si       1.36062226      -1.38341442       1.39883388       0.00000000
Si      -1.44537913      -1.43760555      -1.28096610       0.00000000
Si       1.51949863       1.37434170      -1.27839868       0.00000000
H       -0.64905877       1.16291379      -2.73196523       0.00000000
Si      -0.03069036      -2.61550288      -2.74795324       0.00000000
Si      -2.58116844      -0.06092623       2.83676836       0.00000000
Si      -2.87519317       2.53184395       0.27016230       0.00000000
Si       3.72073377       0.98326767      -0.47155867       0.00000000
Si       0.14434569       2.61982624       2.86314857       0.00000000
