10
Lattice="16.2900001489832 0.0 0.0 0.0 16.2900001489832 0.0 0.0 0.0 29.53925988841934" Properties=species:S:1:pos:R:3:initial_magmoms:R:1 pbc="T T T"
Si       0.46649673       0.50029848       2.23039136       0.00000000
Si       1.48857696       1.28202301      -1.27940442       0.00000000
Si      -2.13086234       0.28124685      -0.99925408       0.00000000
Si       0.28979910      -2.31249584      -0.46252573       0.00000000
H        0.41068719       2.00127702       2.31159478       0.00000000
Si      -1.44559090      -0.69805909      -3.03019636       0.00000000
Si       0.76044979       0.34601589      -3.35344448       0.00000000
Si       2.72722784      -0.01062108       2.57133349       0.00000000
Si      -1.21588561      -3.47180628       0.91719402       0.00000000
Si      -1.13269258      -0.43258095       3.61353766       0.00000000
