10
Lattice="16.2900001489832 0.0 0.0 0.0 16.2900001489832 0.0 0.0 0.0 29.53925988841934" Properties=species:S:1:pos:R:3:initial_magmoms:R:1 pbc="T T T"
Si       1.35252613       1.31085631       1.41424819       0.00000000
Si       1.37916028      -1.41421148      -1.30144367       0.00000000
Si      -1.25721334      -1.38391859       1.49828739       0.00000000
Si      -1.37642356       1.37055916      -1.42295932       0.00000000
Si      -2.68674230       2.58224195       0.11451189       0.00000000
Si       2.68750793       2.62438418      -0.03139728       0.00000000
Si      -2.68943015      -0.11503998      -2.70668416       0.00000000
Si      -2.61982298      -2.77891113       0.19195793       0.00000000
Si       2.71935488      -0.11041362       2.69660654       0.00000000
Si       0.02002041      -2.71565705      -2.70344488       0.00000000
