10
Lattice="16.2900001489832 0.0 0.0 0.0 16.2900001489832 0.0 0.0 0.0 29.53925988841934" Properties=species:S:1:pos:R:3:initial_magmoms:R:1 pbc="T T T"
Si       1.52772508       1.23015076      -1.28500359       0.00000000
Si      -1.35913987      -1.30144558      -1.40200121       0.00000000
Si      -1.37916028       1.41421148       1.30144367       0.00000000
Si       1.37779192      -1.41251080       1.31062447       0.00000000
H        0.91606816       2.48011506      -2.26185067       0.00000000
Si       2.75480193      -0.04574069       2.64270035       0.00000000
Si      -2.74628226      -2.65820711      -0.03349161       0.00000000
Si      -2.63637362       0.03029288       2.79973105       0.00000000
Si      -0.02663415       2.72506779       2.71569186       0.00000000
Si       0.01127268      -2.73898922       2.72440594       0.00000000
