10
Lattice="16.2900001489832 0.0 0.0 0.0 16.2900001489832 0.0 0.0 0.0 29.53925988841934" Properties=species:S:1:pos:R:3:initial_magmoms:R:1 pbc="T T T"
Si      -1.35330805       1.37275668      -1.38096040       0.00000000
Si      -1.39875715      -1.28840869       1.42518067       0.00000000
Si       1.36739890       1.37880842       1.37144876       0.00000000
Si       1.29433825      -1.39652542      -1.45628551       0.00000000
Si       2.62326017       2.64626165      -0.18264124       0.00000000
Si       0.02388114      -2.70495452       2.67477998       0.00000000
Si       2.84643318      -0.06351471       2.54223732       0.00000000
Si      -2.73023660       2.67199985       0.03580158       0.00000000
Si      -2.71591769      -0.02223585      -2.68728986       0.00000000
Si      -2.70454727      -2.71308323       0.01550811       0.00000000
