10
Lattice="16.2900001489832 0.0 0.0 0.0 16.2900001489832 0.0 0.0 0.0 29.53925988841934" Properties=species:S:1:pos:R:3:initial_magmoms:R:1 pbc="T T T"
Si       1.20192508       1.56392146       1.33502685       0.00000000
Si      -1.22274370      -1.33379426       1.54983635       0.00000000
Si      -1.39973455       1.30798927      -1.42999557       0.00000000
Si       1.36013356      -1.33849393      -1.50721120       0.00000000
H        0.00922014       2.80504029       1.42266983       0.00000000
Si      -2.69340491      -2.65432520       0.09358038       0.00000000
Si       0.39198627      -2.69733080       2.62503587       0.00000000
Si       2.77827582       2.61640208      -0.10442128       0.00000000
Si      -0.02215440       2.67742442      -2.82421910       0.00000000
Si      -2.78164785       2.76532527      -0.14562855       0.00000000
