10
Lattice="16.2900001489832 0.0 0.0 0.0 16.2900001489832 0.0 0.0 0.0 29.53925988841934" Properties=species:S:1:pos:R:3:initial_magmoms:R:1 pbc="T T T"
Si      -0.41037768      -1.01695213       2.10845329       0.00000000
Si       1.17648010      -1.60479307      -1.30637377       0.00000000
Si      -2.11118402       0.24470838      -1.08290927       0.00000000
Si       1.24771627       2.06930243      -0.13765295       0.00000000
H        2.25160382      -0.45849834       1.11977426       0.00000000
H        2.31065507       1.88517656       0.90345826       0.00000000
H       -1.40160790      -2.70614369      -1.46863292       0.00000000
Si      -0.62200108      -2.28529154      -2.69790922       0.00000000
Si       3.05414697      -0.41277231      -1.91127873       0.00000000
Si       2.39129057       1.79447384      -2.16581853       0.00000000
