10
Lattice="16.2900001489832 0.0 0.0 0.0 16.2900001489832 0.0 0.0 0.0 29.53925988841934" Properties=species:S:1:pos:R:3:initial_magmoms:R:1 pbc="T T T"
Si      -1.37577196       1.76886921       0.76515545       0.00000000
Si       1.97527655      -0.09048769       1.33272279       0.00000000
Si      -1.32116788      -1.89838449       0.61929058       0.00000000
Si       0.21292659       0.41902116      -2.35652400       0.00000000
Si      -1.72551827      -1.41677063       2.95120838       0.00000000
Si       2.74590759      -2.32834275       1.00814540       0.00000000
Si      -2.70037703       0.77367890       2.50602219       0.00000000
Si      -2.24771051       2.74602487      -1.26159225       0.00000000
Si      -0.25192485       2.76609415      -2.56950206       0.00000000
Si      -0.10580355       3.38328968       1.91816138       0.00000000
