10
Lattice="16.2900001489832 0.0 0.0 0.0 16.2900001489832 0.0 0.0 0.0 29.53925988841934" Properties=species:S:1:pos:R:3:initial_magmoms:R:1 pbc="T T T"
Si       1.39235518       1.41620374      -1.18292920       0.00000000
Si      -1.10105740       1.61095069       1.28950685       0.00000000
Si       1.67436767      -1.22908051       1.20269097       0.00000000
Si      -1.70359193      -1.33560082      -1.13415988       0.00000000
Si      -2.30568662       0.09791919       2.60178847       0.00000000
Si      -3.27951912      -1.34306164       0.86260547       0.00000000
Si       2.32678217       0.14957478      -2.83192885       0.00000000
H        1.10534167      -0.36808884      -3.58334854       0.00000000
Si       0.54944542      -2.58908375       2.77382512       0.00000000
Si      -2.59447574       2.88272730      -0.14341311       0.00000000
