10
Lattice="16.2900001489832 0.0 0.0 0.0 16.2900001489832 0.0 0.0 0.0 29.53925988841934" Properties=species:S:1:pos:R:3:initial_magmoms:R:1 pbc="T T T"
Si       1.29394566       1.22877100      -1.51131715       0.00000000
Si       1.71100225      -1.05298561       1.19837942       0.00000000
Si      -1.08530660       1.69398083       1.21680896       0.00000000
Si      -1.79248809      -1.48893859      -0.43289785       0.00000000
H        1.85920867       2.09823347      -0.38779140       0.00000000
H       -2.27983602      -1.47952297      -1.85217067       0.00000000
H       -1.81200351      -0.31600971      -3.01353622       0.00000000
Si      -2.37824391       0.34231806       2.62109533       0.00000000
Si       0.46025604      -2.44645014       2.64911627       0.00000000
H       -0.37469607      -1.90644967      -3.33492336       0.00000000
