10
Lattice="16.2900001489832 0.0 0.0 0.0 16.2900001489832 0.0 0.0 0.0 29.53925988841934" Properties=species:S:1:pos:R:3:initial_magmoms:R:1 pbc="T T T"
Si       1.58471891      -1.73060075      -0.33943564       0.00000000
Si      -1.66114507      -0.71221510      -1.54035425       0.00000000
Si       0.98389483       2.19756989      -0.14601256       0.00000000
Si      -0.18746858      -0.85387294       2.25741978       0.00000000
Si       1.86443450       2.11331801       2.12963294       0.00000000
Si       0.18663616      -3.60339690      -0.03568343       0.00000000
Si       1.96719182      -0.08540847       3.03326844       0.00000000
H       -1.60768129       1.29979540       3.01468825       0.00000000
Si      -1.56143398      -3.05748642      -1.46104133       0.00000000
Si       3.04272279      -1.53238402       1.52440305       0.00000000
