10
Lattice="16.2900001489832 0.0 0.0 0.0 16.2900001489832 0.0 0.0 0.0 29.53925988841934" Properties=species:S:1:pos:R:3:initial_magmoms:R:1 pbc="T T T"
Si       1.28857159      -1.37443618      -1.41511074       0.00000000
Si      -1.28604664      -1.34245891       1.46085228       0.00000000
Si       1.41336928       1.29171556       1.39314830       0.00000000
Si      -1.39639510       1.34008057      -1.39656894       0.00000000
Si      -2.66449016      -2.68928354       0.11578799       0.00000000
Si       0.02363679       2.67512753       2.68747005       0.00000000
Si       2.73018773       2.65147445      -0.02371412       0.00000000
Si       2.69672807      -2.71761185      -0.05730912       0.00000000
Si      -2.70233183       0.03893310       2.74022717       0.00000000
Si       2.60887610      -0.05385474      -2.84668075       0.00000000
