10
Lattice="16.2900001489832 0.0 0.0 0.0 16.2900001489832 0.0 0.0 0.0 29.53925988841934" Properties=species:S:1:pos:R:3:initial_magmoms:R:1 pbc="T T T"
Si       1.29899719       1.39310452      -1.40730942       0.00000000
Si      -1.33760449       1.41235930       1.35363363       0.00000000
Si       1.39639510      -1.34008057       1.39656894       0.00000000
Si      -1.44635653      -1.35565381      -1.34161854       0.00000000
Si       2.55816533      -0.04127886      -2.78756088       0.00000000
Si      -2.77900887       0.18410958      -2.58666437       0.00000000
Si      -2.67178808      -2.71217099       0.14201885       0.00000000
Si       2.68496669      -2.71451675      -0.01854179       0.00000000
Si       2.76664476       2.67731039      -0.02073656       0.00000000
Si      -2.66649383       0.07716573       2.77654273       0.00000000
