10
Lattice="16.2900001489832 0.0 0.0 0.0 16.2900001489832 0.0 0.0 0.0 29.53925988841934" Properties=species:S:1:pos:R:3:initial_magmoms:R:1 pbc="T T T"
Si       1.34342002       1.28445022      -1.41239017       0.00000000
Si      -1.10376154       1.36793647       1.54906833       0.00000000
Si       1.33424875      -1.31510800       1.40902270       0.00000000
Si      -1.47913201      -1.35698959      -1.27984751       0.00000000
Si      -2.19141227      -0.50081976       2.59053401       0.00000000
Si       2.45949680      -2.76791538      -0.03278858       0.00000000
Si      -0.13561425       2.72677335      -2.58317874       0.00000000
Si      -0.20401596      -2.39194217       2.89469977       0.00000000
Si       3.13030272       0.05421312       2.12286845       0.00000000
Si       2.59046840      -0.13738986      -2.78262782       0.00000000
