10
Lattice="16.2900001489832 0.0 0.0 0.0 16.2900001489832 0.0 0.0 0.0 29.53925988841934" Properties=species:S:1:pos:R:3:initial_magmoms:R:1 pbc="T T T"
Si      -1.21564126       1.40755375       1.41958889       0.00000000
Si       1.44803440       1.38355858      -1.22723809       0.00000000
Si      -1.53705925      -1.23585715      -1.36684063       0.00000000
Si       1.41421636      -1.38020284       1.36704741       0.00000000
Si       2.65121381      -0.12088809      -2.56716846       0.00000000
Si      -2.66378969      -2.58919778       0.18769246       0.00000000
Si      -2.50538573       2.75939896      -0.01917098       0.00000000
Si      -2.60278364       0.05079222       2.78809849       0.00000000
H       -3.46064763       1.67045253      -0.50110400       0.00000000
Si       2.67338450      -2.81458623      -0.01320405       0.00000000
