10
Lattice="16.2900001489832 0.0 0.0 0.0 16.2900001489832 0.0 0.0 0.0 29.53925988841934" Properties=species:S:1:pos:R:3:initial_magmoms:R:1 pbc="T T T"
Si      -1.31279482      -1.33814206      -1.38169888       0.00000000
Si       1.49252239      -1.30882006       1.23311640       0.00000000
Si      -1.15051384       1.34930071       1.57518103       0.00000000
Si       1.36686133       1.36871839      -1.38426880       0.00000000
Si       0.76014028       2.11543571       2.77701536       0.00000000
Si       2.49377096       0.35380251       2.53807229       0.00000000
Si      -2.56865609      -2.60559530       0.17239112       0.00000000
Si      -2.48482775       2.76578139       0.18060303       0.00000000
Si      -2.67962357       0.08312787      -2.66405723       0.00000000
Si       0.10181250      -2.68768061      -2.73704874       0.00000000
