10
Lattice="16.2900001489832 0.0 0.0 0.0 16.2900001489832 0.0 0.0 0.0 29.53925988841934" Properties=species:S:1:pos:R:3:initial_magmoms:R:1 pbc="T T T"
Si      -0.65961469       2.22065282      -0.22884065       0.00000000
Si       2.34549938      -0.36800739       0.15150686       0.00000000
Si      -1.08177004      -1.29735190      -1.69895053       0.00000000
Si      -0.67336345      -1.21303486       1.98858298       0.00000000
Si       2.06277014      -2.70940169       0.16279086       0.00000000
Si       0.33853878      -3.22975317      -1.46559038       0.00000000
Si      -3.09536067      -1.77258008      -0.61509601       0.00000000
Si      -2.92752480       2.14563737       0.39470359       0.00000000
Si       1.17211438      -2.67113648       2.31593705       0.00000000
Si       0.66614698       3.14952492      -1.88755871       0.00000000
