10
Lattice="16.2900001489832 0.0 0.0 0.0 16.2900001489832 0.0 0.0 0.0 29.53925988841934" Properties=species:S:1:pos:R:3:initial_magmoms:R:1 pbc="T T T"
Si      -1.93805390      -1.12062169       0.74060832       0.00000000
Si       0.99245197       0.85340053       1.97038679       0.00000000
Si       1.41359734      -1.47422872      -1.23344134       0.00000000
Si      -1.06743158       1.81656308      -1.21051887       0.00000000
H        2.18018846       0.92812276      -1.33579487       0.00000000
Si       1.40732569       2.95997774       0.81516542       0.00000000
Si       2.21732966       2.44013630      -1.44142726       0.00000000
Si      -0.06643062      -2.00800316      -2.99879612       0.00000000
Si      -2.79582015       0.60248566      -2.40727245       0.00000000
Si      -0.73998792       0.57897919       3.67554057       0.00000000
