10
Lattice="16.2900001489832 0.0 0.0 0.0 16.2900001489832 0.0 0.0 0.0 29.53925988841934" Properties=species:S:1:pos:R:3:initial_magmoms:R:1 pbc="T T T"
Si       0.66285640      -2.20724615       0.25453980       0.00000000
Si      -1.09548622       0.29250324      -2.04479619       0.00000000
Si       1.75946663       1.47152458      -0.48320321       0.00000000
Si      -1.14357430       0.27482859       2.02816558       0.00000000
H       -0.08063550       0.09070272       3.06927680       0.00000000
Si       2.44473806       0.49221864      -2.51414549       0.00000000
Si      -1.45305172       2.59789827      -2.09908935       0.00000000
Si      -2.39129057      -1.79447384       2.16581853       0.00000000
Si      -1.21481047      -3.39926691       0.85944477       0.00000000
Si       0.68722624       3.39737727      -1.33464284       0.00000000
