10
Lattice="16.2900001489832 0.0 0.0 0.0 16.2900001489832 0.0 0.0 0.0 29.53925988841934" Properties=species:S:1:pos:R:3:initial_magmoms:R:1 pbc="T T T"
Si      -1.18672651      -1.44474382       1.53311713       0.00000000
Si       1.35042472       1.17141391       1.63762703       0.00000000
Si      -1.78600304       1.10563489      -1.22065084       0.00000000
Si       1.44943534      -0.89953381      -1.78783417       0.00000000
H        2.07210431      -2.07259301      -1.11094203       0.00000000
H        1.60427179      -3.23610627       0.05042352       0.00000000
Si       2.85703797       2.44915265       0.40383122       0.00000000
Si      -2.90880759       2.57210957       0.26346066       0.00000000
Si       0.08871534      -1.86939155      -3.43464790       0.00000000
Si      -2.49890231      -0.10818189       3.04629525       0.00000000
