10
Lattice="16.2900001489832 0.0 0.0 0.0 16.2900001489832 0.0 0.0 0.0 29.53925988841934" Properties=species:S:1:pos:R:3:initial_magmoms:R:1 pbc="T T T"
Si      -1.58034178       1.35614251       1.07948271       0.00000000
Si       1.44376642       1.54712647      -1.12266911       0.00000000
Si      -0.92949112      -0.16030989      -2.21033420       0.00000000
Si       1.13811715      -1.87162328       1.07295454       0.00000000
H        1.60068799       0.40557213       2.04916800       0.00000000
Si       1.33841899      -0.08529444      -2.83387844       0.00000000
Si      -1.80874388       2.06355206      -2.30128558       0.00000000
Si       1.32467023      -3.51898212      -0.61645481       0.00000000
Si      -3.22688613       2.02857743      -0.46754741       0.00000000
Si      -0.69480109       3.54486693       1.43551941       0.00000000
