10
Lattice="16.2900001489832 0.0 0.0 0.0 16.2900001489832 0.0 0.0 0.0 29.53925988841934" Properties=species:S:1:pos:R:3:initial_magmoms:R:1 pbc="T T T"
Si       1.18708489      -0.50357277       0.84030333       0.00000000
Si      -1.83198971       1.31087260       0.38761417       0.00000000
Si       1.60192603      -2.33763131      -0.51797092       0.00000000
Si      -1.06699501       0.72668062       2.67099896       0.00000000
Si       2.59100597       1.42324102       0.67845772       0.00000000
Si      -0.62328799       2.74740627      -1.16358099       0.00000000
Si       0.35331381      -1.20572065       2.90435911       0.00000000
Si      -3.22670694      -0.36574308      -0.73280996       0.00000000
Si      -0.53835192      -3.13711031      -1.28241743       0.00000000
Si       1.42159573       3.32472387      -0.18574287       0.00000000
