10
Lattice="16.2900001489832 0.0 0.0 0.0 16.2900001489832 0.0 0.0 0.0 29.53925988841934" Properties=species:S:1:pos:R:3:initial_magmoms:R:1 pbc="T T T"
Si      -1.63525537      -1.28984221       1.10027835       0.00000000
Si      -1.04080069       2.13706883       0.21011276       0.00000000
Si       1.93655359       0.70043743       1.23539093       0.00000000
Si       0.41086638      -0.95578318      -2.21449924       0.00000000
Si       2.49399414       2.26494533      -0.52169287       0.00000000
Si       0.46488402       3.29637927      -1.16960700       0.00000000
Si      -1.82562032      -1.05336028      -3.11258135       0.00000000
Si      -1.23994594      -0.99683398       3.46764326       0.00000000
Si      -1.24429537      -3.58155201       0.60508220       0.00000000
Si      -3.05238765       2.21135123      -0.96859233       0.00000000
