10
Lattice="16.2900001489832 0.0 0.0 0.0 16.2900001489832 0.0 0.0 0.0 29.53925988841934" Properties=species:S:1:pos:R:3:initial_magmoms:R:1 pbc="T T T"
Si       1.46293975       1.25341777      -1.32393545       0.00000000
Si       1.44462979      -1.29401245       1.34383841       0.00000000
Si      -1.29086848       1.40675554       1.39679935       0.00000000
Si      -1.41218011      -1.29857365      -1.42616728       0.00000000
Si       0.15389163       2.59634909      -2.74934889       0.00000000
Si      -2.73248462      -2.61915509       0.00540273       0.00000000
Si       0.06227667      -2.60472215       2.74569193       0.00000000
Si       2.76635154       2.64303623       0.11260366       0.00000000
Si      -2.65080656       2.77267206       0.00320796       0.00000000
Si      -2.60768693       0.04699665       2.81366177       0.00000000
