10
Lattice="16.2900001489832 0.0 0.0 0.0 16.2900001489832 0.0 0.0 0.0 29.53925988841934" Properties=species:S:1:pos:R:3:initial_magmoms:R:1 pbc="T T T"
H        0.72497017      -1.00766683       0.84352311       0.00000000
Si      -1.35280306      -1.40765149      -1.23530231       0.00000000
Si      -1.12524805       1.45280737       1.44181128       0.00000000
Si       1.47962071       1.36576990      -1.25683643       0.00000000
H        2.28582911      -0.14196735       1.39410537       0.00000000
Si       0.67080592       2.82212850       2.15565703       0.00000000
Si      -2.45949680       2.76791538       0.03278858       0.00000000
Si       0.15205086      -2.78308137      -2.48463577       0.00000000
Si      -2.64863999       0.00522909      -2.64193233       0.00000000
Si      -2.63969678      -2.65702934       0.35940417       0.00000000
