10
Lattice="16.2900001489832 0.0 0.0 0.0 16.2900001489832 0.0 0.0 0.0 29.53925988841934" Properties=species:S:1:pos:R:3:initial_magmoms:R:1 pbc="T T T"
Si      -1.12606255       1.15403248      -1.66297171       0.00000000
Si      -1.24514245      -1.53883486       1.21831723       0.00000000
Si       0.66819577       1.16274763       2.02258266       0.00000000
Si       1.61374932      -1.44578638      -1.15575308       0.00000000
Si       2.44661141      -1.89086177       0.97405709       0.00000000
Si       2.88052815       0.36189864       1.70710337       0.00000000
Si       0.57997288      -2.73171899       2.15893589       0.00000000
Si       0.68706480       2.16257897      -2.73125905       0.00000000
Si      -2.17238555      -0.55126990      -2.87517432       0.00000000
Si      -0.34686297       3.35161866       1.85355902       0.00000000
