10
Lattice="16.2900001489832 0.0 0.0 0.0 16.2900001489832 0.0 0.0 0.0 29.53925988841934" Properties=species:S:1:pos:R:3:initial_magmoms:R:1 pbc="T T T"
Si      -1.50661324      -1.27773874       1.23379581       0.00000000
Si       1.47780927      -1.27379656      -1.30247459       0.00000000
Si      -1.07557984       1.62512299      -1.37056258       0.00000000
Si       1.80859727       1.02117124       1.21113919       0.00000000
Si       3.16674345       0.39131838      -0.82662665       0.00000000
H        1.17733858       3.12973257      -0.13283805       0.00000000
Si       0.82488325       2.98991550      -1.59594713       0.00000000
Si      -0.05823675      -2.51175512       2.71557193       0.00000000
Si       0.25665384       2.71458191       2.50442707       0.00000000
H        2.88627852      -2.10750248       1.11097156       0.00000000
