10
Lattice="16.2900001489832 0.0 0.0 0.0 16.2900001489832 0.0 0.0 0.0 29.53925988841934" Properties=species:S:1:pos:R:3:initial_magmoms:R:1 pbc="T T T"
Si       1.26283339       1.82384471       0.73611836       0.00000000
Si      -1.76756276      -0.94768705       1.26271474       0.00000000
Si       1.09499752      -2.09437274      -0.27368124       0.00000000
Si      -0.81454888       0.95508271      -2.03714552       0.00000000
Si      -3.22556664      -1.14590377      -0.60112394       0.00000000
Si      -2.25372152      -0.78478705      -2.70747994       0.00000000
Si       3.10858815      -1.61914456      -1.35753577       0.00000000
Si       0.64953118       0.64365049      -3.84539131       0.00000000
Si      -0.17497089      -3.70879320      -1.42668717       0.00000000
Si       1.79390369      -3.06496353       1.79270814       0.00000000
