10
Lattice="16.2900001489832 0.0 0.0 0.0 16.2900001489832 0.0 0.0 0.0 29.53925988841934" Properties=species:S:1:pos:R:3:initial_magmoms:R:1 pbc="T T T"
Si       1.27291690      -1.51534468      -1.27905586       0.00000000
Si       1.37533213       1.32376451       1.40253588       0.00000000
Si      -1.38805462      -1.37301895       1.34531833       0.00000000
Si      -1.27827631       1.35921318      -1.46868314       0.00000000
Si      -2.62769105      -0.11769525      -2.72815861       0.00000000
Si      -2.68982111       2.68703552      -0.04281420       0.00000000
Si       2.67025682       2.71894763       0.02168477       0.00000000
Si       0.01433520       2.76605832       2.65192841       0.00000000
Si      -2.76556962       0.00159642       2.66669804       0.00000000
Si       2.65797416      -2.77283496       0.10365622       0.00000000
