10
Lattice="16.2900001489832 0.0 0.0 0.0 16.2900001489832 0.0 0.0 0.0 29.53925988841934" Properties=species:S:1:pos:R:3:initial_magmoms:R:1 pbc="T T T"
Si      -1.38686545      -1.34954343       1.28602122       0.00000000
Si       1.36099693      -1.44229381      -1.24939254       0.00000000
Si      -1.43944957       1.32776533      -1.29361281       0.00000000
Si       1.30631140       1.35646831       1.41803217       0.00000000
Si       2.65592162      -0.04711068      -2.63024364       0.00000000
Si      -0.10430487       2.72634329      -2.61854019       0.00000000
Si      -0.15061734       2.73724130       2.61047301       0.00000000
Si       2.66773759       2.72168435       0.07987416       0.00000000
Si      -2.75142990      -0.01365102       2.64045536       0.00000000
Si      -2.70415631      -0.07902279      -2.69474261       0.00000000
