10
Lattice="16.2900001489832 0.0 0.0 0.0 16.2900001489832 0.0 0.0 0.0 29.53925988841934" Properties=species:S:1:pos:R:3:initial_magmoms:R:1 pbc="T T T"
Si      -1.45692874       1.38077299       1.19244084       0.00000000
Si       1.36142619       1.36521604      -1.33815801       0.00000000
Si       1.32367654      -1.19619100       1.52588001       0.00000000
Si      -1.30631140      -1.35646831      -1.41803217       0.00000000
Si      -0.22112046      -2.49613301       2.72774388       0.00000000
Si       2.32920612       0.48625650       2.91186208       0.00000000
Si       2.70386472      -0.08161290      -2.61416542       0.00000000
Si      -2.69317685      -2.70601175      -0.13201095       0.00000000
Si      -0.00244350       2.71953407      -2.71031571       0.00000000
Si       2.74293792      -2.67964475       0.28682621       0.00000000
