10
Lattice="16.2900001489832 0.0 0.0 0.0 16.2900001489832 0.0 0.0 0.0 29.53925988841934" Properties=species:S:1:pos:R:3:initial_magmoms:R:1 pbc="T T T"
Si      -0.69370966      -0.79058629       1.09578838       0.00000000
H        1.25459065       1.08128134      -0.91456503       0.00000000
H       -0.53853111       1.20630709      -1.52874532       0.00000000
Si      -1.45691245       0.40721742      -2.41651823       0.00000000
Si       2.43414956       0.38439513      -1.52437351       0.00000000
Si      -2.39019914      -2.01236888      -0.01934822       0.00000000
Si      -1.84006955       0.74401318       2.47166803       0.00000000
Si       0.89663419      -2.01088649       2.38860363       0.00000000
Si      -0.35466588      -1.63061272      -2.88010738       0.00000000
H        1.26941455       3.26665002      -0.72849723       0.00000000
