10
Lattice="16.2900001489832 0.0 0.0 0.0 16.2900001489832 0.0 0.0 0.0 29.53925988841934" Properties=species:S:1:pos:R:3:initial_magmoms:R:1 pbc="T T T"
Si       1.41814225       0.03497463      -1.83373818       0.00000000
Si      -0.58865545       2.12524229       0.78905271       0.00000000
Si       1.64654434      -0.67243492       1.54703012       0.00000000
Si      -1.91128943      -1.31471704      -0.61096051       0.00000000
Si       2.53208504       1.51628950       1.90306682       0.00000000
H        1.29249748       2.15192531       2.47996856       0.00000000
Si      -2.84840427       1.61704315       1.31866210       0.00000000
Si       2.29739501      -2.18888732      -1.74278679       0.00000000
Si      -1.53370351       2.17702820      -2.51851730       0.00000000
Si      -3.52074633      -0.55684108       0.95908069       0.00000000
