10
Lattice="16.2900001489832 0.0 0.0 0.0 16.2900001489832 0.0 0.0 0.0 29.53925988841934" Properties=species:S:1:pos:R:3:initial_magmoms:R:1 pbc="T T T"
Si       1.32576166       0.92887210      -1.65871806       0.00000000
Si       0.65961469      -2.22065282       0.22884065       0.00000000
Si      -2.26791011      -0.07501545       0.62354424       0.00000000
Si       0.10534743       1.63242091       1.71120933       0.00000000
Si      -1.33841899       0.08529444       2.83387844       0.00000000
H        1.28774080      -0.16099407      -2.93877235       0.00000000
Si       3.63952812       0.60186664      -1.00102644       0.00000000
Si       0.34472898       2.91103932      -2.46499216       0.00000000
Si      -1.24212880       3.49888026       0.94983490       0.00000000
Si      -0.42215535      -3.51800472      -1.47010989       0.00000000
