10
Lattice="16.2900001489832 0.0 0.0 0.0 16.2900001489832 0.0 0.0 0.0 29.53925988841934" Properties=species:S:1:pos:R:3:initial_magmoms:R:1 pbc="T T T"
H        0.91838134       0.79908967       0.88777292       0.00000000
Si      -0.41241393       0.95874796      -2.09253163       0.00000000
Si      -1.93288997      -0.78920164       1.06128653       0.00000000
Si       1.10224657      -2.03783015      -0.46358914       0.00000000
H       -0.63110719       2.46699020       0.71718369       0.00000000
H        1.45691245      -0.40721742       2.41651823       0.00000000
H        2.71150310       0.67406392       1.50195321       0.00000000
Si       0.75355912       2.83973799      -1.30232689       0.00000000
Si      -0.93328669      -2.41958630       2.39717002       0.00000000
Si      -2.78905980       0.55483741      -2.29788857       0.00000000
