10
Lattice="16.2900001489832 0.0 0.0 0.0 16.2900001489832 0.0 0.0 0.0 29.53925988841934" Properties=species:S:1:pos:R:3:initial_magmoms:R:1 pbc="T T T"
Si       1.33952671      -1.37863900      -1.33639452       0.00000000
Si      -1.33514470      -1.39857796       1.32492738       0.00000000
Si      -1.35167905       1.31167081      -1.41736458       0.00000000
Si       1.40817277       1.34965909       1.32625664       0.00000000
Si       0.10430487      -2.72634329       2.61854019       0.00000000
Si       2.63246402      -0.02697624      -2.74068089       0.00000000
Si      -2.72779310       2.67688685      -0.06184339       0.00000000
Si      -2.59985144      -2.80536609      -0.07620243       0.00000000
Si      -2.77278609      -0.06245586       2.64161035       0.00000000
Si       0.07188777       2.73807210       2.68122250       0.00000000
