10
Lattice="16.2900001489832 0.0 0.0 0.0 16.2900001489832 0.0 0.0 0.0 29.53925988841934" Properties=species:S:1:pos:R:3:initial_magmoms:R:1 pbc="T T T"
Si       1.34952551      -1.45083628      -1.26977463       0.00000000
Si      -1.32139594      -1.36001953       1.39925997       0.00000000
Si      -1.32211270       1.30468240      -1.47240509       0.00000000
Si       1.37942418       1.34943103       1.39255456       0.00000000
Si      -2.68840388       2.63552654      -0.00820601       0.00000000
Si       0.21778590       2.48968217      -2.87882242       0.00000000
Si      -0.09710469      -2.73665487      -2.66767756       0.00000000
Si      -2.65768094       0.02839347       2.75422582       0.00000000
Si      -2.72956871      -2.70967862       0.07300333       0.00000000
Si       2.70096347       2.75973780       0.04878704       0.00000000
