10
Lattice="16.2900001489832 0.0 0.0 0.0 16.2900001489832 0.0 0.0 0.0 29.53925988841934" Properties=species:S:1:pos:R:3:initial_magmoms:R:1 pbc="T T T"
Si      -0.50209038       0.27786179       2.30645495       0.00000000
Si      -1.97527655       0.09048769      -1.33272279       0.00000000
Si       0.77063104      -2.23785506      -0.32457739       0.00000000
Si       1.35281935       2.01660428      -0.26505578       0.00000000
H        1.83356984      -2.42198093       0.71653383       0.00000000
Si      -3.29644443      -1.80789680      -0.71343220       0.00000000
Si      -3.35104851       1.85935691      -0.56756734       0.00000000
Si      -1.38217393       2.50318658       2.65182798       0.00000000
Si       1.91420534      -2.51268365      -2.35274297       0.00000000
Si      -0.06748947       3.94900555      -0.49841593       0.00000000
