10
Lattice="16.2900001489832 0.0 0.0 0.0 16.2900001489832 0.0 0.0 0.0 29.53925988841934" Properties=species:S:1:pos:R:3:initial_magmoms:R:1 pbc="T T T"
Si      -0.33228342       1.59208687      -1.67286737       0.00000000
Si       0.58865545      -2.12524229      -0.78905271       0.00000000
Si      -2.25974882      -0.50819913       0.52960939       0.00000000
Si      -0.77972086       0.02557530       2.29496418       0.00000000
H        1.88115293       0.02668302       1.69091585       0.00000000
H       -0.01312974       2.42792678       2.19261064       0.00000000
Si       3.12074049      -0.60895279       1.11401411       0.00000000
Si      -0.94504807       0.05178591      -3.30757001       0.00000000
Si       2.23519979      -2.79767721       0.75797741       0.00000000
Si      -2.28638297       2.76490173      -1.20812619       0.00000000
