10
Lattice="16.2900001489832 0.0 0.0 0.0 16.2900001489832 0.0 0.0 0.0 29.53925988841934" Properties=species:S:1:pos:R:3:initial_magmoms:R:1 pbc="T T T"
Si       0.82481158      -0.92668924      -1.96645807       0.00000000
Si      -1.49527540      -1.22003956       1.34146641       0.00000000
Si      -1.35329176       1.90783595      -0.43467021       0.00000000
Si       2.03136302       0.04062726       1.24998332       0.00000000
Si      -1.36749664       2.44169183       1.91373049       0.00000000
Si       2.73953819      -2.21392505       0.69358182       0.00000000
Si      -2.43043056       0.51549705       2.69805692       0.00000000
Si       1.91246231       0.94206700      -3.00792376       0.00000000
Si      -1.10156239      -1.84319723      -3.05772695       0.00000000
Si      -0.41653530      -2.68356575       2.78292321       0.00000000
