10
Lattice="16.2900001489832 0.0 0.0 0.0 16.2900001489832 0.0 0.0 0.0 29.53925988841934" Properties=species:S:1:pos:R:3:initial_magmoms:R:1 pbc="T T T"
Si      -1.42881220       1.48059811       1.17829154       0.00000000
Si       1.39337005       1.40410027      -1.31813039       0.00000000
Si      -1.35242839      -1.33941268      -1.42940479       0.00000000
Si       1.43982636      -1.32972013       1.37183277       0.00000000
Si      -2.63669942      -2.72308529       0.00803468       0.00000000
Si       2.69740248       0.01314603      -2.75054818       0.00000000
Si       2.75834174      -2.70164765      -0.03597882       0.00000000
Si      -2.68486895       2.77052340      -0.29955763       0.00000000
Si       2.66068319       0.08180838       2.83189931       0.00000000
Si       0.06299343       2.67777303      -2.83497139       0.00000000
