10
Lattice="16.2900001489832 0.0 0.0 0.0 16.2900001489832 0.0 0.0 0.0 29.53925988841934" Properties=species:S:1:pos:R:3:initial_magmoms:R:1 pbc="T T T"
Si      -0.19437228       1.46636065       0.33299608       0.00000000
H        0.18570600      -2.45783522       0.93633546       0.00000000
Si       0.08273691      -1.70278068       2.22014123       0.00000000
H        1.30750057      -0.84783423       2.36065949       0.00000000
Si      -2.43827093       1.27876501       0.80603778       0.00000000
Si      -0.56790199       2.39041091      -1.72881472       0.00000000
Si      -2.06185790      -0.62918008       2.14726788       0.00000000
H       -2.86469427       1.04075182      -0.61515509       0.00000000
Si       1.16634772       2.43621839       1.97980982       0.00000000
H        1.78901669       1.26315919       2.65670196       0.00000000
