10
Lattice="16.2900001489832 0.0 0.0 0.0 16.2900001489832 0.0 0.0 0.0 29.53925988841934" Properties=species:S:1:pos:R:3:initial_magmoms:R:1 pbc="T T T"
Si       1.26275194      -1.16054848       1.68063353       0.00000000
Si      -1.80859727      -1.02117124      -1.21113919       0.00000000
Si       1.35814618      -0.62985286      -2.03776584       0.00000000
H       -0.63125868       2.10856133      -1.34397725       0.00000000
Si      -1.55194343       1.69341068       1.29328788       0.00000000
H        1.28712178       2.60956028      -0.61861118       0.00000000
H        1.07768125      -3.12867372      -0.10016763       0.00000000
Si      -0.33078800      -2.29496780      -2.51361378       0.00000000
Si      -0.98371401       1.96874426      -2.80708633       0.00000000
Si      -0.42020381      -2.24710778       2.90233567       0.00000000
