10
Lattice="16.2900001489832 0.0 0.0 0.0 16.2900001489832 0.0 0.0 0.0 29.53925988841934" Properties=species:S:1:pos:R:3:initial_magmoms:R:1 pbc="T T T"
Si       0.41241393      -0.95874796       2.09253163       0.00000000
Si       1.16597305       1.88099003       0.79020474       0.00000000
Si       1.15860997      -1.38903202      -1.56132712       0.00000000
Si      -2.37664586      -0.40391055      -0.20535693       0.00000000
H        0.40874868       0.74751553      -3.04892425       0.00000000
H       -0.21869325       1.50824224       2.80971532       0.00000000
H        1.33079527      -0.15965829       2.98030455       0.00000000
H        0.34969743      -1.59615937      -2.83260825       0.00000000
Si      -0.16672815       3.64329437       0.10055164       0.00000000
Si      -2.31228407      -2.15461316      -1.84392922       0.00000000
