10
Lattice="16.2900001489832 0.0 0.0 0.0 16.2900001489832 0.0 0.0 0.0 29.53925988841934" Properties=species:S:1:pos:R:3:initial_magmoms:R:1 pbc="T T T"
H        1.06293880      -0.18412587       1.04111121       0.00000000
Si       1.14357430      -0.27482859      -2.02816558       0.00000000
Si      -0.77063104       2.23785506       0.32457739       0.00000000
Si      -1.24771627      -2.06930243       0.13765295       0.00000000
H        1.00388755      -2.52780077       1.25742721       0.00000000
Si       1.80643070      -2.48207474      -1.77362578       0.00000000
Si      -2.74590759       2.32834275      -1.00814540       0.00000000
Si      -0.07123617      -3.67409550      -1.16872082       0.00000000
Si      -1.27272142       2.51571685       2.63103234       0.00000000
Si       1.81280009      -2.32067342       2.52870834       0.00000000
