10
Lattice="16.2900001489832 0.0 0.0 0.0 16.2900001489832 0.0 0.0 0.0 29.53925988841934" Properties=species:S:1:pos:R:3:initial_magmoms:R:1 pbc="T T T"
Si       1.32035338      -1.27040661       1.44790522       0.00000000
Si      -1.00326364      -1.84585087      -1.09362611       0.00000000
Si       1.25074621       1.39346453      -1.45073686       0.00000000
Si      -1.41780016       1.39395323       1.29667012       0.00000000
Si       2.57305439      -2.56391407      -0.07898798       0.00000000
Si      -0.46025604       2.44645014      -2.64911627       0.00000000
Si      -2.71272485      -0.00122989       2.67752123       0.00000000
Si      -0.07831580      -2.66585690       2.76194443       0.00000000
Si       2.68296302       0.12458592       2.75423468       0.00000000
Si      -0.06354566       2.71591932       2.73078051       0.00000000
