10
Lattice="16.2900001489832 0.0 0.0 0.0 16.2900001489832 0.0 0.0 0.0 29.53925988841934" Properties=species:S:1:pos:R:3:initial_magmoms:R:1 pbc="T T T"
Si       0.84320625      -1.70316839       1.28992040       0.00000000
Si      -1.47780927       1.27379656       1.30247459       0.00000000
Si      -0.92859843      -1.09991710      -1.89964026       0.00000000
Si       1.68893418       1.66511495       0.47584794       0.00000000
H        1.40846925      -0.83370592       2.41344615       0.00000000
Si       0.33078800       2.29496780       2.51361378       0.00000000
Si      -1.47940569       0.78809392      -3.16335934       0.00000000
Si       2.87279365      -2.14948181       0.16231823       0.00000000
Si       1.18291791       3.18179541      -1.21353187       0.00000000
Si      -2.88541189      -2.07488990      -0.88919080       0.00000000
