10
Lattice="16.2900001489832 0.0 0.0 0.0 16.2900001489832 0.0 0.0 0.0 29.53925988841934" Properties=species:S:1:pos:R:3:initial_magmoms:R:1 pbc="T T T"
Si       1.32888934       1.33519357      -1.42290910       0.00000000
Si       1.36055710      -1.37831320       1.36025338       0.00000000
Si      -1.37205784      -1.34232859      -1.39965580       0.00000000
Si      -1.29283957       1.34959393       1.46689011       0.00000000
Si      -2.70287918       2.64499103       0.07813134       0.00000000
Si       2.70604595       2.66615174      -0.00490352       0.00000000
Si      -0.00529425      -2.78933673      -2.63452388       0.00000000
Si      -2.64193992      -0.06980265       2.79270071       0.00000000
Si       2.66649383      -0.07716573      -2.77654273       0.00000000
Si      -2.69359714      -2.75263536      -0.05588828       0.00000000
