10
Lattice="16.2900001489832 0.0 0.0 0.0 16.2900001489832 0.0 0.0 0.0 29.53925988841934" Properties=species:S:1:pos:R:3:initial_magmoms:R:1 pbc="T T T"
Si      -1.20784324       1.39571092       1.44231344       0.00000000
Si      -1.43304288      -1.08398548      -1.56044094       0.00000000
Si       1.24804533       1.51897735      -1.38234874       0.00000000
Si       1.54198209      -1.17535609       1.43534218       0.00000000
Si       2.19934876       0.73329436       2.81612534       0.00000000
Si       0.51062960       2.48495807       2.67442551       0.00000000
Si       2.75040688      -2.46425348      -0.13183372       0.00000000
Si      -2.53854892       2.79521742       0.06415927       0.00000000
Si      -0.09292305      -2.46516572      -2.88182066       0.00000000
Si       2.62824817       0.23905575      -2.79916981       0.00000000
