10
Lattice="16.2900001489832 0.0 0.0 0.0 16.2900001489832 0.0 0.0 0.0 29.53925988841934" Properties=species:S:1:pos:R:3:initial_magmoms:R:1 pbc="T T T"
Si      -1.36260964      -1.39499253      -1.30632946       0.00000000
Si      -1.37692855       1.29924317       1.41676198       0.00000000
Si       1.35330805      -1.37275668       1.38096040       0.00000000
Si       1.25721334       1.38391859      -1.49828739       0.00000000
Si       2.60973947       2.69477490      -0.08403919       0.00000000
Si      -2.74650869       2.59133340      -0.02345417       0.00000000
Si       2.64764630      -2.76928211      -0.07532511       0.00000000
Si       2.63637362      -0.03029288      -2.79973105       0.00000000
Si      -2.68296302      -0.12458592      -2.75423468       0.00000000
Si      -0.04544910      -2.66116538       2.80614107       0.00000000
