10
Lattice="16.2900001489832 0.0 0.0 0.0 16.2900001489832 0.0 0.0 0.0 29.53925988841934" Properties=species:S:1:pos:R:3:initial_magmoms:R:1 pbc="T T T"
Si      -2.02321802      -1.11086398       0.50261051       0.00000000
Si      -0.92476702       1.73890865      -1.34049161       0.00000000
Si       0.98130961      -1.97032439      -1.02120175       0.00000000
Si       1.57136599       1.21590190       1.53214233       0.00000000
H        1.73610677       1.74001637      -1.94453994       0.00000000
Si       2.09015363      -1.08434386      -2.87747838       0.00000000
Si      -1.51720174      -2.62754444       2.19199032       0.00000000
Si      -2.65365731      -2.27918279      -1.48482044       0.00000000
Si       2.46224981      -3.00242622       0.54139556       0.00000000
Si      -2.33836436       3.21313737      -0.10705028       0.00000000
