10
Lattice="16.2900001489832 0.0 0.0 0.0 16.2900001489832 0.0 0.0 0.0 29.53925988841934" Properties=species:S:1:pos:R:3:initial_magmoms:R:1 pbc="T T T"
Si      -1.10884402      -0.88598053       1.85627663       0.00000000
Si       1.58034178      -1.35614251      -1.07948271       0.00000000
Si      -1.64654434       0.67243492      -1.54703012       0.00000000
Si       0.88554070       2.18872442       0.35603670       0.00000000
H       -0.35404686       2.82436023       0.93293845       0.00000000
H        3.18102978      -0.95057038       0.96968528       0.00000000
Si      -0.22840209       0.70740955      -3.38076829       0.00000000
Si      -2.23519979       2.79767721      -0.75797741       0.00000000
Si       0.65085067      -1.51645240      -3.28981691       0.00000000
Si      -2.09015363       1.08434386       2.87747838       0.00000000
