10
Lattice="16.290000149 0.0 0.0 0.0 16.290000149 0.0 0.0 0.0 29.1751946751" Properties=species:S:1:pos:R:3:initial_magmoms:R:1 pbc="T T T"
Si      -1.36948402       1.38839671       1.30894511       0.00000000
Si      -1.35956341      -1.34710156      -1.36586591       0.00000000
Si       1.35399223       1.35044101      -1.37012549       0.00000000
Si       1.34622190      -1.33169122       1.40904520       0.00000000
Si       0.01788642       2.73515619       2.64945778       0.00000000
Si       2.67015908      -2.72590021       0.04396702       0.00000000
Si      -2.69446376      -2.71080752       0.00411370       0.00000000
Si      -0.06879267      -2.61269774       2.79069490       0.00000000
Si      -0.00918756      -2.69510233      -2.73955078       0.00000000
Si       2.71508690      -0.00198738      -2.72335855       0.00000000
