10
Lattice="16.290000149 0.0 0.0 0.0 16.290000149 0.0 0.0 0.0 29.1751946751" Properties=species:S:1:pos:R:3:initial_magmoms:R:1 pbc="T T T"
Si      -1.35249355       1.37702629       1.26322758       0.00000000
Si       1.33361344       1.45178110      -1.25257863       0.00000000
Si      -1.42433245      -1.31069341      -1.30728212       0.00000000
Si       1.30271131      -1.29896461       1.45838046       0.00000000
Si      -2.75509515       0.06506226       2.51907383       0.00000000
Si       2.66843234       0.08619039      -2.61097570       0.00000000
Si      -0.04584006      -2.65645919      -2.62918102       0.00000000
Si       2.67491576      -2.65181654       0.12685375       0.00000000
Si      -0.05615163       2.79371874      -2.59545449       0.00000000
Si      -2.78770773       0.08617410      -2.60875838       0.00000000
