10
Lattice="16.290000149 0.0 0.0 0.0 16.290000149 0.0 0.0 0.0 29.1751946751" Properties=species:S:1:pos:R:3:initial_magmoms:R:1 pbc="T T T"
Si       1.32816770      -1.36086661       1.37380157       0.00000000
Si      -1.36976584      -1.36881613      -1.32525404       0.00000000
Si      -1.36562818       1.35083197       1.34973203       0.00000000
Si       1.36714967       1.36321237      -1.34658111       0.00000000
Si      -2.69490848       0.01420488      -2.68519739       0.00000000
Si       0.00978377      -2.71616042      -2.66734217       0.00000000
Si       2.68437537       0.00504990       2.71186352       0.00000000
Si      -0.02322791       2.71063973       2.70410292       0.00000000
Si      -2.70132674       2.72593604      -0.00411370       0.00000000
Si       2.72777193       0.00904095      -2.69952241       0.00000000
