10
Lattice="16.290000149 0.0 0.0 0.0 16.290000149 0.0 0.0 0.0 29.1751946751" Properties=species:S:1:pos:R:3:initial_magmoms:R:1 pbc="T T T"
Si       1.03337245      -1.46953720      -1.48361700       0.00000000
Si      -0.82362241      -1.73501534       1.33762433       0.00000000
Si      -1.62266320       1.25107201      -1.17188004       0.00000000
Si       2.09935748       0.95114053       0.68220358       0.00000000
H       -2.37179144      -1.76015081       0.80246373       0.00000000
Si       0.16327467       0.76129687       3.41825333       0.00000000
Si       2.30856995      -2.77368204      -0.04939360       0.00000000
Si      -0.28105137       2.63132372      -2.49161998       0.00000000
H        2.99121870      -1.87392017       0.93681550       0.00000000
Si       2.43597404      -0.15757317      -2.73946325       0.00000000
