10
Lattice="16.290000149 0.0 0.0 0.0 16.290000149 0.0 0.0 0.0 29.1751946751" Properties=species:S:1:pos:R:3:initial_magmoms:R:1 pbc="T T T"
Si      -1.36273996      -1.36042678      -1.32960115       0.00000000
Si      -1.42309441       1.34555401       1.28665526       0.00000000
Si       1.36014985       1.35382933      -1.35431254       0.00000000
Si       1.36919080      -1.32390460       1.37867382       0.00000000
Si      -0.04526991       2.68496669       2.58772307       0.00000000
Si      -0.08816148      -2.62088183       2.68438049       0.00000000
Si       0.01137042      -2.71476110      -2.66054435       0.00000000
Si      -2.70454727       0.02251278      -2.67416917       0.00000000
Si       2.73750194      -0.01169622      -2.66970536       0.00000000
Si       0.01036044       2.72867277      -2.70028097       0.00000000
