10
Lattice="16.290000149 0.0 0.0 0.0 16.290000149 0.0 0.0 0.0 29.1751946751" Properties=species:S:1:pos:R:3:initial_magmoms:R:1 pbc="T T T"
Si       1.12997215      -0.07045425      -1.00120516       0.00000000
H        0.65759473       0.93944431       1.59089419       0.00000000
H       -0.93480166       1.78502564       0.41390849       0.00000000
Si      -2.29104191       1.20565549       0.14421299       0.00000000
Si      -2.74952397      -1.00247032       0.75324518       0.00000000
Si       0.12173517       0.68038444       2.97540305       0.00000000
Si       1.33946155      -2.18373968      -1.95549660       0.00000000
Si       3.19412694       0.64378081      -0.13866970       0.00000000
Si       0.92196514       1.48471948      -2.78159224       0.00000000
Si      -1.67552426      -0.91574236       2.85324651       0.00000000
