10
Lattice="16.290000149 0.0 0.0 0.0 16.290000149 0.0 0.0 0.0 29.1751946751" Properties=species:S:1:pos:R:3:initial_magmoms:R:1 pbc="T T T"
Si       1.72142948      -0.75914659      -1.37692331       0.00000000
Si       1.35938422       1.34524450       1.34089195       0.00000000
Si      -1.43646525       1.18684054      -1.44583512       0.00000000
Si      -1.19052534      -1.69399712       1.18874331       0.00000000
Si      -1.66277244      -0.66741760      -2.87967924       0.00000000
Si       0.64742977      -0.84587455      -3.47692465       0.00000000
Si       2.56717370      -2.60470586      -0.25493285       0.00000000
Si      -2.65056971      -0.41391261       2.53409906       0.00000000
Si      -0.08592975       2.53842185       2.69808816       0.00000000
Si       2.63894744      -0.15063363       2.67767690       0.00000000
