10
Lattice="16.290000149 0.0 0.0 0.0 16.290000149 0.0 0.0 0.0 29.1751946751" Properties=species:S:1:pos:R:3:initial_magmoms:R:1 pbc="T T T"
Si      -1.33403698       1.36602566      -1.36997962       0.00000000
Si       1.36912727       1.37140787       1.33225609       0.00000000
Si       1.36940909      -1.33877737      -1.38147464       0.00000000
Si      -1.38134314      -1.32424669       1.38687205       0.00000000
Si      -2.63733473      -2.69311169      -0.06946614       0.00000000
Si       0.06026733      -2.67136454       2.66926774       0.00000000
Si      -0.02541240       2.71067231       2.68029596       0.00000000
Si      -2.70485678       2.70576902      -0.00364690       0.00000000
Si      -2.66546756       0.01099575      -2.75358405       0.00000000
Si       2.71565705       2.72446994      -0.04431712       0.00000000
