10
Lattice="16.290000149 0.0 0.0 0.0 16.290000149 0.0 0.0 0.0 29.1751946751" Properties=species:S:1:pos:R:3:initial_magmoms:R:1 pbc="T T T"
Si       1.67273867      -1.68225203      -0.25612903       0.00000000
Si      -1.85929175      -0.85468744      -1.24475968       0.00000000
Si      -0.63312715       0.32873220       2.32759703       0.00000000
Si       0.69199921       1.85536586      -1.41680580       0.00000000
H        2.20560086       0.78446125       1.12773797       0.00000000
H       -1.08732493       2.50462010       0.08116539       0.00000000
H       -2.61938315      -0.29248695       1.24303834       0.00000000
H        0.58481101      -1.62797374       2.54264739       0.00000000
H       -0.49635630       2.35195022      -2.21894861       0.00000000
H       -3.26370153       0.13980078       1.20201802       0.00000000
