10
Lattice="16.290000149 0.0 0.0 0.0 16.290000149 0.0 0.0 0.0 29.1751946751" Properties=species:S:1:pos:R:3:initial_magmoms:R:1 pbc="T T T"
Si      -1.50205204      -1.36199062       1.16120192       0.00000000
Si       1.39056328      -1.35338950      -1.31437170       0.00000000
Si       1.34229601       1.28497150       1.43136423       0.00000000
Si      -1.33779997       1.34413678      -1.38908937       0.00000000
H       -0.85634902      -2.20175642       2.24077165       0.00000000
Si      -0.00946449      -2.72271062      -2.62950195       0.00000000
Si       2.69369813       2.67428045       0.07938570       0.00000000
Si      -2.93418741      -0.13706406       2.44861574       0.00000000
Si       2.74527228      -2.66085749       0.11162429       0.00000000
Si       2.72867277      -0.00514764      -2.68861089       0.00000000
