10
Lattice="16.290000149 0.0 0.0 0.0 16.290000149 0.0 0.0 0.0 29.1751946751" Properties=species:S:1:pos:R:3:initial_magmoms:R:1 pbc="T T T"
Si      -1.29948283      -1.28991389       1.47200819       0.00000000
Si      -1.45010017       1.38458485      -1.22623927       0.00000000
Si       1.36230157       1.39514077       1.31790481       0.00000000
Si       1.43221336      -1.30710310      -1.35183556       0.00000000
Si      -2.62407161      -2.62651850       0.13496153       0.00000000
Si      -0.12870423       2.71029764      -2.59155640       0.00000000
Si       0.08569807      -2.52047923      -2.83360869       0.00000000
Si       2.71106634      -2.68040549       0.03531074       0.00000000
Si       2.65642968       0.04210965       2.74921069       0.00000000
Si       0.01116041       2.72090243       2.72426590       0.00000000
