10
Lattice="16.290000149 0.0 0.0 0.0 16.290000149 0.0 0.0 0.0 29.1751946751" Properties=species:S:1:pos:R:3:initial_magmoms:R:1 pbc="T T T"
Si      -0.93127324       0.81476553       1.99517486       0.00000000
Si       1.36170718       1.38444313      -1.33476516       0.00000000
Si      -1.86824147      -0.89974232      -1.12129026       0.00000000
Si       1.84033996      -1.17432493       0.93325613       0.00000000
H        2.64294827       1.42401154      -0.51459208       0.00000000
H       -2.91505317       0.21341529      -1.10203463       0.00000000
Si       0.52446144      -2.60188281       2.27913703       0.00000000
Si       1.96324801      -0.13466454      -3.09318331       0.00000000
Si       0.40223105       2.79289283       2.48065010       0.00000000
Si      -0.64638411      -1.01042391       3.56555889       0.00000000
