10
Lattice="16.290000149 0.0 0.0 0.0 16.290000149 0.0 0.0 0.0 29.1751946751" Properties=species:S:1:pos:R:3:initial_magmoms:R:1 pbc="T T T"
Si       1.34589447       1.32903595      -1.38116830       0.00000000
Si      -1.33148108      -1.36016614      -1.37825370       0.00000000
Si      -1.35474320       1.38852703       1.32951362       0.00000000
Si       1.36914030      -1.34874685       1.36388200       0.00000000
Si      -2.62722027      -2.67478544       0.09032640       0.00000000
Si       2.70812945       2.69684210      -0.01797192       0.00000000
Si      -2.69555682       0.03466512       2.71393496       0.00000000
Si      -0.03980787       2.66893733      -2.75259209       0.00000000
Si       0.00992550       2.71832861       2.70824580       0.00000000
Si       2.72979515       0.00548973       2.71740681       0.00000000
