10
Lattice="16.290000149 0.0 0.0 0.0 16.290000149 0.0 0.0 0.0 29.1751946751" Properties=species:S:1:pos:R:3:initial_magmoms:R:1 pbc="T T T"
Si       1.35603174      -1.40840083       1.31323386       0.00000000
Si      -1.46004437       1.28008450       1.34535575       0.00000000
Si       1.19052534       1.69399712      -1.18874331       0.00000000
Si      -1.10723294      -1.70836490      -1.24808565       0.00000000
Si       2.36312842      -2.64911240      -0.52952978       0.00000000
Si      -2.77758838      -2.49173471       0.19801205       0.00000000
Si       2.52957964       0.05937705       2.76298430       0.00000000
Si      -2.86177510       2.45146583      -0.11454181       0.00000000
Si      -0.13166881      -2.60815934       2.74823040       0.00000000
Si       0.30623897      -3.65782179      -1.25330801       0.00000000
