10
Lattice="16.290000149 0.0 0.0 0.0 16.290000149 0.0 0.0 0.0 29.1751946751" Properties=species:S:1:pos:R:3:initial_magmoms:R:1 pbc="T T T"
Si      -1.49218030       1.79489738      -0.12667870       0.00000000
Si       1.11918817      -1.10361493      -1.76696649       0.00000000
Si      -1.67013227      -1.51641982       0.72287380       0.00000000
Si       1.85929175       0.85468744       1.24475968       0.00000000
H       -0.76009141       0.56220049       2.48779803       0.00000000
H       -1.40440978       0.99448822       2.44677770       0.00000000
Si       2.46189143      -2.51717969      -0.39573234       0.00000000
H        1.36293544       3.20663766      -0.97418893       0.00000000
H        0.77196682       3.35930754       1.32592507       0.00000000
Si       2.55129095       2.71005329      -0.17204612       0.00000000
