10
Lattice="16.290000149 0.0 0.0 0.0 16.290000149 0.0 0.0 0.0 29.1751946751" Properties=species:S:1:pos:R:3:initial_magmoms:R:1 pbc="T T T"
Si      -1.34623819       1.31564557      -1.36747055       0.00000000
Si       0.93335185       1.84867067       1.06045998       0.00000000
Si      -1.37671678      -1.30227148       1.36347355       0.00000000
Si       1.45559296      -1.34646625      -1.23600712       0.00000000
Si       0.06822252      -2.69322572      -2.57651979       0.00000000
Si      -2.42264882       0.17036082       2.84140138       0.00000000
Si       0.02375082       2.67087584      -2.69695500       0.00000000
Si      -2.72406269      -0.02376711      -2.66853836       0.00000000
Si       2.80223841       0.00324171      -2.59034883       0.00000000
Si      -2.76495060       2.63248031      -0.06272667       0.00000000
