10
Lattice="16.290000149 0.0 0.0 0.0 16.290000149 0.0 0.0 0.0 29.1751946751" Properties=species:S:1:pos:R:3:initial_magmoms:R:1 pbc="T T T"
Si      -1.36855549      -1.34864911      -1.33774103       0.00000000
Si      -1.36510201       1.34710156       1.35011131       0.00000000
Si       1.32514264      -1.38302101       1.35994335       0.00000000
Si       1.38471387       1.33097446      -1.36863756       0.00000000
Si       0.07407063      -2.67984186      -2.62089526       0.00000000
Si       2.69490848      -0.01420488       2.68519739       0.00000000
Si      -0.00641826       2.71173116       2.68108369       0.00000000
Si      -2.69459408       2.71371854      -0.02546994       0.00000000
Si       0.05515794       2.74022238      -2.67918730       0.00000000
Si       2.71948846       2.70777269      -0.02412789       0.00000000
