10
Lattice="16.290000149 0.0 0.0 0.0 16.290000149 0.0 0.0 0.0 29.1751946751" Properties=species:S:1:pos:R:3:initial_magmoms:R:1 pbc="T T T"
Si       1.36273996       1.36042678       1.32960115       0.00000000
Si       1.37411038      -1.35433432      -1.33094321       0.00000000
Si      -1.34180731       1.38293956      -1.34456802       0.00000000
Si      -1.37319814      -1.33553566       1.36434880       0.00000000
Si      -0.06035445       2.70598079       2.61625641       0.00000000
Si       0.00026064      -2.70075170      -2.67408164       0.00000000
Si      -2.69042384       0.02262681      -2.69409583       0.00000000
Si      -0.01725111      -2.70031187       2.70287756       0.00000000
Si       2.72360657       0.01218492      -2.68583925       0.00000000
Si      -2.72940581      -2.70145217       0.02628685       0.00000000
