10
Lattice="16.290000149 0.0 0.0 0.0 16.290000149 0.0 0.0 0.0 29.1751946751" Properties=species:S:1:pos:R:3:initial_magmoms:R:1 pbc="T T T"
Si       1.21515256      -1.41553585       1.44913484       0.00000000
Si      -1.48846618      -1.25134894      -1.37421002       0.00000000
Si      -1.48190131       1.29850865       1.33917061       0.00000000
Si       1.61766217       1.48611879      -0.94002477       0.00000000
Si       2.55730196      -2.77120596       0.10599348       0.00000000
H        1.17667558      -1.11765691      -3.45145471       0.00000000
Si       0.88813081       3.67637610      -0.53740709       0.00000000
Si      -2.79873606      -2.61918767       0.11098244       0.00000000
H        3.06823782      -0.69082633      -2.21165481       0.00000000
Si      -0.18380007       2.58196339       2.84502786       0.00000000
