10
Lattice="16.290000149 0.0 0.0 0.0 16.290000149 0.0 0.0 0.0 29.1751946751" Properties=species:S:1:pos:R:3:initial_magmoms:R:1 pbc="T T T"
Si      -1.31444011       0.45341586      -0.60839033       0.00000000
H        0.59096863      -0.15266988      -2.30011400       0.00000000
Si       1.77932414      -0.64925425      -1.49797120       0.00000000
Si       1.08732493      -2.50462010      -0.08116539       0.00000000
Si      -2.54021375       0.69463819       1.35755098       0.00000000
Si      -2.26414712      -1.56441016      -1.45260377       0.00000000
Si       0.45419778      -2.17588790       2.24643164       0.00000000
Si      -1.32131449      -0.62617132       2.87679090       0.00000000
Si      -1.02354958       2.49250034      -1.78855613       0.00000000
Si       3.07208226       1.02915334      -0.32965052       0.00000000
