10
Lattice="16.290000149 0.0 0.0 0.0 16.290000149 0.0 0.0 0.0 29.1751946751" Properties=species:S:1:pos:R:3:initial_magmoms:R:1 pbc="T T T"
Si       1.35294967       1.39779604      -1.32037012       0.00000000
Si      -1.35192340       1.36946773       1.35807614       0.00000000
Si       1.37642356      -1.34719930       1.35947655       0.00000000
Si      -1.36223497      -1.36780615      -1.36319638       0.00000000
Si       2.73447200       0.04140918      -2.64510776       0.00000000
Si      -2.70812945      -2.69684210       0.01797192       0.00000000
Si       2.69014691       2.72244998       0.08434549       0.00000000
Si      -2.69820395       0.02148651       2.72621772       0.00000000
Si       0.02166570      -2.69135237       2.73537873       0.00000000
Si      -2.71785783       2.71746524      -0.01356647       0.00000000
