10
Lattice="16.290000149 0.0 0.0 0.0 16.290000149 0.0 0.0 0.0 29.1751946751" Properties=species:S:1:pos:R:3:initial_magmoms:R:1 pbc="T T T"
Si      -1.37060803       1.34620561       1.33873298       0.00000000
Si      -1.38551338      -1.35040843      -1.32519569       0.00000000
Si       1.36326124      -1.36443412       1.33634062       0.00000000
Si       1.37041255       1.35759232      -1.33855793       0.00000000
Si       0.00602730       2.68275125       2.68446801       0.00000000
Si      -0.05551632      -2.77023507      -2.61147168       0.00000000
Si      -0.00198738      -2.71295617       2.68435131       0.00000000
Si       2.69762402      -0.00120546      -2.70474477       0.00000000
Si      -2.72010422      -0.02031363       2.69362902       0.00000000
Si      -2.71687880       2.70451469      -0.03077983       0.00000000
