10
Lattice="16.290000149 0.0 0.0 0.0 16.290000149 0.0 0.0 0.0 29.1751946751" Properties=species:S:1:pos:R:3:initial_magmoms:R:1 pbc="T T T"
Si       0.84903481      -1.87610303      -1.11046626       0.00000000
Si       1.48846618       1.25134894       1.37421002       0.00000000
Si      -1.38851074       1.31491252      -1.43040144       0.00000000
Si      -1.31026987      -1.36783873       1.48519246       0.00000000
H        1.38489436      -1.61704315      -2.49497512       0.00000000
H        2.66514176       0.13369203      -2.07724469       0.00000000
Si       0.00656487       2.54985760       2.71338063       0.00000000
Si      -2.79704190       2.49492755       0.03944486       0.00000000
H       -0.20750202      -0.77146183      -3.67196083       0.00000000
Si       2.54172872      -2.80601769       0.19541545       0.00000000
