10
Lattice="16.290000149 0.0 0.0 0.0 16.290000149 0.0 0.0 0.0 29.1751946751" Properties=species:S:1:pos:R:3:initial_magmoms:R:1 pbc="T T T"
Si       1.43143489       1.38362374       1.18495053       0.00000000
Si      -1.34156296       1.41612229      -1.27638559       0.00000000
Si       1.41758839      -1.34602642      -1.27982826       0.00000000
Si      -1.36998901      -1.35523027       1.32948445       0.00000000
Si       0.03543075      -2.68636763      -2.61255116       0.00000000
Si      -2.68912064       0.05344749      -2.62643855       0.00000000
Si       2.70663239       0.07947891       2.61917393       0.00000000
Si      -0.02375082      -2.67087584       2.69695500       0.00000000
Si       0.04515588       2.77549023      -2.59279955       0.00000000
Si       2.76219759       0.00786807      -2.64140543       0.00000000
