10
Lattice="16.290000149 0.0 0.0 0.0 16.290000149 0.0 0.0 0.0 29.1751946751" Properties=species:S:1:pos:R:3:initial_magmoms:R:1 pbc="T T T"
Si       1.36036162      -1.35312072       1.35168677       0.00000000
Si      -1.36163224       1.36335084       1.34643523       0.00000000
Si       1.34985457       1.38677586      -1.33578629       0.00000000
Si      -1.34635222      -1.38853518      -1.33937484       0.00000000
Si      -2.78040981      -0.04245011      -2.60137706       0.00000000
Si      -0.00127062      -2.71529053       2.69292882       0.00000000
Si       2.79248070       0.05558311      -2.61894053       0.00000000
Si      -0.00260640       2.70794374       2.71063816       0.00000000
Si      -0.02726946       2.72657950      -2.69465016       0.00000000
Si      -2.72688086       0.01482879       2.69444593       0.00000000
