10
Lattice="16.290000149 0.0 0.0 0.0 16.290000149 0.0 0.0 0.0 29.1751946751" Properties=species:S:1:pos:R:3:initial_magmoms:R:1 pbc="T T T"
Si       1.34210053       1.01232577      -1.63996687       0.00000000
Si       1.42837237      -1.63676367       0.92106090       0.00000000
Si      -1.83980891      -1.16083030      -1.00243051       0.00000000
Si      -0.10969686       1.72375895       1.80442744       0.00000000
H       -2.25952076       1.47142684       0.48918049       0.00000000
Si       2.76902310       2.27546867      -0.23281805       0.00000000
Si       0.62903836       0.39644973       3.59172904       0.00000000
Si       2.62198955      -0.49114513       2.61319301       0.00000000
Si      -2.90522379       2.31119264      -0.59038924       0.00000000
Si       0.13971933      -3.07765344       2.20144349       0.00000000
