10
Lattice="16.290000149 0.0 0.0 0.0 16.290000149 0.0 0.0 0.0 29.1751946751" Properties=species:S:1:pos:R:3:initial_magmoms:R:1 pbc="T T T"
Si      -1.32012532      -1.34097652      -1.39446636       0.00000000
Si       1.35575155       1.31440753      -1.39926568       0.00000000
Si      -1.37875303       1.35899326       1.33613639       0.00000000
Si       1.35270532      -1.36704052       1.35626727       0.00000000
Si       2.69926931       2.68376123      -0.03588549       0.00000000
Si      -2.69441652      -2.70205490      -0.03323055       0.00000000
Si      -0.01809819       2.71322984       2.68966120       0.00000000
Si       0.09901062      -2.72311787      -2.67813700       0.00000000
Si       2.69954624      -0.01039302       2.71912814       0.00000000
Si      -0.01785384       2.66579336      -2.76046356       0.00000000
