10
Lattice="16.290000149 0.0 0.0 0.0 16.290000149 0.0 0.0 0.0 29.1751946751" Properties=species:S:1:pos:R:3:initial_magmoms:R:1 pbc="T T T"
Si      -1.36109467       1.35242839       1.35323305       0.00000000
Si      -1.35902584      -1.34459290      -1.36420293       0.00000000
Si       1.32357880      -1.36629118       1.39098576       0.00000000
Si       1.35591445       1.37458279      -1.35857212       0.00000000
Si       2.69606018       0.01782126       2.70101035       0.00000000
Si       2.69439860      -2.70603455       0.02465304       0.00000000
Si       0.00913869       2.71868699       2.68823161       0.00000000
Si      -2.72427446      -2.69311495      -0.01619223       0.00000000
Si       0.00260640      -2.70794374      -2.71063816       0.00000000
Si      -2.71625978       2.70259247      -0.01607553       0.00000000
