10
Lattice="16.290000149 0.0 0.0 0.0 16.290000149 0.0 0.0 0.0 29.1751946751" Properties=species:S:1:pos:R:3:initial_magmoms:R:1 pbc="T T T"
Si       1.36436896      -1.35218404      -1.32163632       0.00000000
Si      -1.17800810      -1.52759476       1.31848540       0.00000000
Si       1.53960049       1.31356045       1.18961856       0.00000000
Si      -1.03080677       1.54463410      -1.48239164       0.00000000
H        2.72060921      -0.77281390      -1.05194082       0.00000000
Si       0.13106934       2.49357548       2.65946487       0.00000000
Si      -1.40431530      -3.38185290      -0.11535872       0.00000000
Si       2.32218839       2.81314293      -0.51794723       0.00000000
Si       0.90588691      -3.56030985      -0.71260413       0.00000000
Si       0.89705773      -0.93037078      -3.53168649       0.00000000
