10
Lattice="16.290000149 0.0 0.0 0.0 16.290000149 0.0 0.0 0.0 29.1751946751" Properties=species:S:1:pos:R:3:initial_magmoms:R:1 pbc="T T T"
Si       2.23475996      -0.48703842       0.34067875       0.00000000
Si      -1.05384898       0.67174096       2.06846295       0.00000000
Si      -0.05818788       2.06448059      -1.28960196       0.00000000
Si      -0.64883071      -1.77837932      -1.58514668       0.00000000
Si      -2.36625284       1.97406131      -0.93617365       0.00000000
H       -0.65542816      -2.91421587       1.53446936       0.00000000
Si       2.81033454      -1.52205616      -1.66313197       0.00000000
Si      -3.12205998       1.39183390       1.21943561       0.00000000
Si       3.48065175       1.28837937      -0.51572992       0.00000000
Si       1.20133864      -3.21452202      -1.66103136       0.00000000
