10
Lattice="16.290000149 0.0 0.0 0.0 16.290000149 0.0 0.0 0.0 29.1751946751" Properties=species:S:1:pos:R:3:initial_magmoms:R:1 pbc="T T T"
Si      -1.61246566       0.17280432       1.67935338       0.00000000
Si       0.83422720       1.92884842      -1.01970223       0.00000000
Si       1.76814920      -1.15673662       1.03134313       0.00000000
Si      -1.56129877      -0.78006295      -1.59308233       0.00000000
H       -0.21258450       3.04200603      -1.00044660       0.00000000
Si      -2.04835349       2.46195496       1.37750682       0.00000000
Si       1.11307942       1.19140174      -3.22654313       0.00000000
Si       0.61789600      -2.79627627       2.21390130       0.00000000
Si      -2.47366910      -2.61557129      -0.42006445       0.00000000
Si      -0.41441760      -0.65247967      -3.65279272       0.00000000
