10
Lattice="16.290000149 0.0 0.0 0.0 16.290000149 0.0 0.0 0.0 29.1751946751" Properties=species:S:1:pos:R:3:initial_magmoms:R:1 pbc="T T T"
Si       0.15511338      -0.79547329      -1.27580209       0.00000000
H       -1.40129839       2.02973402      -0.45825478       0.00000000
Si       0.92300770      -0.16237872       2.54115946       0.00000000
H       -1.29323053      -2.67307499       0.43304741       0.00000000
Si      -2.05467401      -0.71780257      -2.08445096       0.00000000
Si       1.01696842      -2.87197590      -0.48261607       0.00000000
Si      -0.79584796       1.46746837       2.64496480       0.00000000
Si       2.79298569       0.73498852       1.26503644       0.00000000
Si       0.87351868      -2.45649944       1.87535234       0.00000000
Si       1.23644359       0.37098846      -2.98068376       0.00000000
