10
Lattice="16.290000149 0.0 0.0 0.0 16.290000149 0.0 0.0 0.0 29.1751946751" Properties=species:S:1:pos:R:3:initial_magmoms:R:1 pbc="T T T"
Si       1.15517278       1.14355801      -1.64723149       0.00000000
Si       1.49747455      -1.31856148       1.25689656       0.00000000
Si      -1.47035170       1.37479456       1.23221435       0.00000000
Si      -1.40714650      -1.39533625      -1.35206605       0.00000000
H        1.97014520       2.27496368      -0.81042856       0.00000000
Si      -2.77549023      -0.12000843       2.49844697       0.00000000
Si       0.18164979      -2.67559994       2.64233903       0.00000000
Si       2.54340659      -2.79119379      -0.22103127       0.00000000
Si      -2.87502701       2.59209740      -0.16101790       0.00000000
Si      -0.14343345       2.64543086      -2.84924951       0.00000000
