10
Lattice="16.290000149 0.0 0.0 0.0 16.290000149 0.0 0.0 0.0 29.1751946751" Properties=species:S:1:pos:R:3:initial_magmoms:R:1 pbc="T T T"
Si       0.27306113      -0.82352467      -2.15371287       0.00000000
Si      -2.26785310       0.48607731      -0.11953077       0.00000000
Si       1.28478417       1.98860177       0.11541707       0.00000000
Si       1.03080677      -1.54463410       1.48239164       0.00000000
Si      -2.54670532       1.22352399       2.08731013       0.00000000
Si       3.35299517       1.26850883       0.96444441       0.00000000
Si       2.57040727      -0.23107365       2.67201020       0.00000000
Si       1.92786450      -2.47500488      -2.04929485       0.00000000
Si       1.19572674       0.90534934      -3.43494155       0.00000000
Si       2.39517574      -2.89681815       0.16075532       0.00000000
