10
Lattice="16.290000149 0.0 0.0 0.0 16.290000149 0.0 0.0 0.0 29.1751946751" Properties=species:S:1:pos:R:3:initial_magmoms:R:1 pbc="T T T"
Si       1.38152233      -1.35638686      -1.32473764       0.00000000
Si       1.33719724       1.32465394       1.40471560       0.00000000
Si      -1.35294967      -1.39779604       1.32037012       0.00000000
Si      -1.32898708       1.39572721      -1.36902559       0.00000000
Si      -0.03114648      -2.65259846      -2.66842662       0.00000000
Si      -2.65883753       2.71002071       0.05026303       0.00000000
Si       2.70317891       0.04693149      -2.66705917       0.00000000
Si      -2.70487307      -0.02832831       2.67844625       0.00000000
Si      -2.75602368       0.03645702      -2.64801536       0.00000000
Si       2.68710068       2.71991248       0.09441677       0.00000000
