10
Lattice="16.290000149 0.0 0.0 0.0 16.290000149 0.0 0.0 0.0 29.1751946751" Properties=species:S:1:pos:R:3:initial_magmoms:R:1 pbc="T T T"
Si       1.34240027       1.35980776       1.35437089       0.00000000
Si      -1.33569856       1.37510407      -1.35384573       0.00000000
Si       1.36562818      -1.35083197      -1.34973203       0.00000000
Si      -1.35423658      -1.34628706       1.37476435       0.00000000
Si      -2.69438231       0.01047447      -2.68481811       0.00000000
Si       2.67472028       0.00286704       2.71834041       0.00000000
Si      -0.00413766      -2.71964810      -2.67498607       0.00000000
Si       2.69379587      -2.71169858       0.02406954       0.00000000
Si      -2.68670972       2.72002277       0.01117410       0.00000000
Si       2.69312798       2.72157032      -0.01350812       0.00000000
