10
Lattice="16.290000149 0.0 0.0 0.0 16.290000149 0.0 0.0 0.0 29.1751946751" Properties=species:S:1:pos:R:3:initial_magmoms:R:1 pbc="T T T"
Si      -0.71796547      -0.08920404      -1.32394116       0.00000000
H       -2.11224287       0.74324755       0.30803171       0.00000000
H        1.15867513       1.62872308      -1.11720573       0.00000000
H        1.80299351       1.19643535      -1.07618541       0.00000000
Si      -1.51363423       0.84172060       1.70820765       0.00000000
Si       0.26155224      -2.68941386       1.44735223       0.00000000
Si       2.25458489      -2.09192924       0.27716435       0.00000000
Si       0.89295265      -0.88218496      -2.84110963       0.00000000
Si       0.38563317       2.34124769       2.02595469       0.00000000
Si      -1.03480597      -1.18778536       2.76761732       0.00000000
