10
Lattice="16.290000149 0.0 0.0 0.0 16.290000149 0.0 0.0 0.0 29.1751946751" Properties=species:S:1:pos:R:3:initial_magmoms:R:1 pbc="T T T"
Si       1.35940051       1.36239787      -1.34520988       0.00000000
Si      -1.36523233      -1.35536059      -1.34786482       0.00000000
Si       1.34978941      -1.37484343       1.34596843       0.00000000
Si      -1.37476198       1.36497169       1.33208104       0.00000000
Si      -0.02381598       2.70053993      -2.69593386       0.00000000
Si       2.72834696      -0.01656693      -2.66818825       0.00000000
Si       0.00423540      -2.71860554      -2.68467224       0.00000000
Si      -0.02720430       2.72764649       2.68213400       0.00000000
Si       2.73194706      -0.03450222       2.67869132       0.00000000
Si      -2.71490771      -2.70615998       0.02611180       0.00000000
