10
Lattice="16.290000149 0.0 0.0 0.0 16.290000149 0.0 0.0 0.0 29.1751946751" Properties=species:S:1:pos:R:3:initial_magmoms:R:1 pbc="T T T"
Si      -0.84574423       1.84555928      -1.12199046       0.00000000
Si       1.71543476      -0.44137755      -1.52519165       0.00000000
Si       1.37930689       1.02796417       1.63200204       0.00000000
Si      -1.39457062      -1.73840366       0.91414637       0.00000000
H        1.11682612      -0.53985060      -2.92536759       0.00000000
H       -2.00002106      -1.17613801      -2.18907321       0.00000000
Si       2.19426302      -2.47088351      -0.46578198       0.00000000
Si       0.32428503      -3.36825075       0.81034103       0.00000000
Si       2.64420911       2.51177141       0.30604779       0.00000000
Si      -2.56717370       2.60470586       0.25493285       0.00000000
