10
Lattice="16.290000149 0.0 0.0 0.0 16.290000149 0.0 0.0 0.0 29.1751946751" Properties=species:S:1:pos:R:3:initial_magmoms:R:1 pbc="T T T"
H       -1.04681170       1.11315761       0.01925563       0.00000000
Si      -0.83422720      -1.92884842       1.01970223       0.00000000
Si       0.27885222      -0.73744668      -2.20684090       0.00000000
Si       1.86824147       0.89974232       1.12129026       0.00000000
Si       2.54670532      -1.22352399      -2.08731013       0.00000000
Si      -2.39552597      -2.70891137      -0.57338010       0.00000000
Si       0.93696823       1.71450785       3.11646512       0.00000000
H        0.16874811       3.28354438      -1.71827309       0.00000000
Si      -2.88258069       0.53310654       2.39720905       0.00000000
Si       0.93392200      -3.08558504       2.05104536       0.00000000
