10
Lattice="16.290000149 0.0 0.0 0.0 16.290000149 0.0 0.0 0.0 29.1751946751" Properties=species:S:1:pos:R:3:initial_magmoms:R:1 pbc="T T T"
Si       1.35745892       1.35265645      -1.34754389       0.00000000
Si      -1.33481890       1.36559071       1.35839706       0.00000000
Si       1.33550308      -1.36516717       1.36169386       0.00000000
Si      -1.36765954      -1.35133696      -1.35019883       0.00000000
Si      -2.66843234      -0.08619039       2.61097570       0.00000000
Si       2.67290395       0.02410920       2.69911396       0.00000000
Si       2.68059935      -2.71151939      -0.01756347       0.00000000
Si       2.67192492       2.71992503       0.04638856       0.00000000
Si      -0.01236411       2.70910847      -2.68648110       0.00000000
Si      -0.01808190      -2.68208336      -2.73103162       0.00000000
