10
Lattice="16.290000149 0.0 0.0 0.0 16.290000149 0.0 0.0 0.0 29.1751946751" Properties=species:S:1:pos:R:3:initial_magmoms:R:1 pbc="T T T"
Si       1.34214940      -1.35567010      -1.34314135       0.00000000
Si       1.30424257       1.18410382       1.55298394       0.00000000
Si      -1.32165658      -1.40331835       1.34232153       0.00000000
Si      -1.21515256       1.41553585      -1.44913484       0.00000000
Si      -0.16189002      -2.64183077      -2.62792940       0.00000000
Si       0.40250961       2.90165465      -2.38915961       0.00000000
Si      -2.70317891      -0.04693149       2.66705917       0.00000000
Si      -2.69705387       2.71404451      -0.10996423       0.00000000
Si      -2.73432539      -2.69952995      -0.00136744       0.00000000
Si      -0.01607823       2.67298098       2.76147594       0.00000000
