10
Lattice="16.290000149 0.0 0.0 0.0 16.290000149 0.0 0.0 0.0 29.1751946751" Properties=species:S:1:pos:R:3:initial_magmoms:R:1 pbc="T T T"
Si       1.31476591      -1.26384337       1.47242248       0.00000000
Si      -0.85727755      -1.93649006      -1.04032034       0.00000000
Si      -1.43143489       1.37169946       1.28451380       0.00000000
Si       1.21709107       1.43430193      -1.44224366       0.00000000
Si       2.57297294      -2.66447387       0.10773816       0.00000000
Si       2.61231329       2.75597481      -0.07707795       0.00000000
Si      -0.05965398       2.77799889       2.59647854       0.00000000
Si      -0.09615987      -2.66797622       2.73027599       0.00000000
Si       2.75476935       0.16281855      -2.64032303       0.00000000
Si      -1.51022962      -1.51314553      -3.17180755       0.00000000
