10
Lattice="16.290000149 0.0 0.0 0.0 16.290000149 0.0 0.0 0.0 29.1751946751" Properties=species:S:1:pos:R:3:initial_magmoms:R:1 pbc="T T T"
Si      -1.33810948      -1.34824186       1.37423919       0.00000000
Si       1.32678793      -1.37003788      -1.37228446       0.00000000
Si      -1.36013356       1.33082785      -1.38506319       0.00000000
Si       1.34227972       1.32434443       1.40919108       0.00000000
Si       2.69614163       2.66763413       0.01254533       0.00000000
Si       2.63375093      -2.74924704       0.00163381       0.00000000
Si      -2.72867277       0.00514764       2.68861089       0.00000000
Si      -2.71982729       2.69899238      -0.05482019       0.00000000
Si       2.68102451      -0.02375082      -2.74704881       0.00000000
Si      -0.00568521       2.69627195      -2.73587471       0.00000000
