10
Lattice="16.290000149 0.0 0.0 0.0 16.290000149 0.0 0.0 0.0 29.1751946751" Properties=species:S:1:pos:R:3:initial_magmoms:R:1 pbc="T T T"
Si       1.46558199      -1.21016782      -1.33747845       0.00000000
Si      -1.15025320      -1.63953965       1.18255817       0.00000000
Si      -1.76814920       1.15673662      -1.03134313       0.00000000
Si       1.45878092       1.38344455       1.34938193       0.00000000
H       -2.05138343      -0.89712289       2.16016059       0.00000000
Si      -3.38061486       1.32954094       0.64801025       0.00000000
Si       2.64359009       0.31742694      -2.65596385       0.00000000
Si       2.90204724      -2.39700836       0.10835667       0.00000000
Si      -0.93392200       3.08558504      -2.05104536       0.00000000
Si       0.25147753      -2.81092098       2.64245573       0.00000000
