10
Lattice="16.290000149 0.0 0.0 0.0 16.290000149 0.0 0.0 0.0 29.1751946751" Properties=species:S:1:pos:R:3:initial_magmoms:R:1 pbc="T T T"
Si       1.35936793      -1.35768029      -1.33940401       0.00000000
Si       1.37384974       1.34641738       1.34313844       0.00000000
Si      -1.34521192      -1.35437179       1.36539911       0.00000000
Si      -1.33006222       1.36920709      -1.37295549       0.00000000
Si      -0.00026064       2.70075170       2.67408164       0.00000000
Si       2.70844058       0.01632258      -2.67568628       0.00000000
Si       0.04399929      -2.70255989       2.69917231       0.00000000
Si       0.00395847      -2.72953614      -2.67752432       0.00000000
Si      -2.69068448       2.72337851      -0.02001418       0.00000000
Si      -2.70114266      -2.71608059       0.01339141       0.00000000
