10
Lattice="16.290000149 0.0 0.0 0.0 16.290000149 0.0 0.0 0.0 29.1751946751" Properties=species:S:1:pos:R:3:initial_magmoms:R:1 pbc="T T T"
Si      -1.37735209       1.36552555       1.31539283       0.00000000
Si      -1.37663533      -1.33654564      -1.34573503       0.00000000
Si       1.35641944       1.35267274      -1.36038098       0.00000000
Si       1.35516511      -1.35016408       1.36930859       0.00000000
Si       0.00480555       2.70586676       2.64811572       0.00000000
Si      -0.00602730      -2.68275125      -2.68446801       0.00000000
Si      -2.73750194       0.01169622       2.66970536       0.00000000
Si       2.71625978      -2.70259247       0.01607553       0.00000000
Si       0.00120546       2.72380205      -2.69876386       0.00000000
Si      -2.72613152      -2.70306488       0.00916101       0.00000000
