10
Lattice="16.290000149 0.0 0.0 0.0 16.290000149 0.0 0.0 0.0 29.1751946751" Properties=species:S:1:pos:R:3:initial_magmoms:R:1 pbc="T T T"
Si       1.37148769       1.36132273       1.32502064       0.00000000
Si       1.38626272      -1.31406544      -1.35769686       0.00000000
Si      -1.35521398       1.37112931      -1.33838288       0.00000000
Si      -1.35641944      -1.35267274       1.36038098       0.00000000
Si       0.00796581      -2.67783167      -2.66264497       0.00000000
Si      -0.00700470       2.70708851       2.64691954       0.00000000
Si       0.02326212       2.68832243      -2.70386952       0.00000000
Si       2.71575479      -2.68068242       0.01788439       0.00000000
Si      -2.73377154       0.01285281       2.67577380       0.00000000
Si      -2.73305477      -2.68921838       0.01464595       0.00000000
