10
Lattice="16.290000149 0.0 0.0 0.0 16.290000149 0.0 0.0 0.0 29.1751946751" Properties=species:S:1:pos:R:3:initial_magmoms:R:1 pbc="T T T"
Si      -1.45240012      -1.31235499       1.29698328       0.00000000
Si       1.29334456      -1.35971002      -1.41161262       0.00000000
Si      -1.36943515       1.36109467      -1.34553080       0.00000000
Si       1.41030676       1.32840064       1.36146046       0.00000000
Si      -0.15379389      -2.81422785       2.49900130       0.00000000
H        0.66117853      -1.68282218       3.33580423       0.00000000
Si       0.04629618       2.69804756       2.70550333       0.00000000
Si      -0.00829161       2.71023248      -2.69797613       0.00000000
Si       2.68006340      -0.00034209      -2.72802658       0.00000000
Si       2.63490752      -2.77583232      -0.13522703       0.00000000
