10
Lattice="16.290000149 0.0 0.0 0.0 16.290000149 0.0 0.0 0.0 29.1751946751" Properties=species:S:1:pos:R:3:initial_magmoms:R:1 pbc="T T T"
Si       0.52256203      -0.67512277       2.23018106       0.00000000
Si      -2.00870363       1.36733374       0.08317848       0.00000000
Si       1.15754786       2.05982165      -0.59015584       0.00000000
Si      -1.22346046      -1.58830759      -1.41342148       0.00000000
Si       2.19066293      -1.41840289      -1.04455949       0.00000000
H       -1.04545963       1.11281878      -2.39029452       0.00000000
H       -2.66624948      -1.29961621      -0.97538511       0.00000000
H       -1.55598823       2.65206089      -0.57696865       0.00000000
Si      -0.01348812       2.22086459      -2.60409035       0.00000000
H        3.38747295      -1.05360463      -0.15448266       0.00000000
