10
Lattice="16.290000149 0.0 0.0 0.0 16.290000149 0.0 0.0 0.0 29.1751946751" Properties=species:S:1:pos:R:3:initial_magmoms:R:1 pbc="T T T"
Si      -1.36230157      -1.39514077      -1.31790481       0.00000000
Si       1.29412811      -1.35303112       1.43130588       0.00000000
Si      -1.35114116       1.32576166       1.40636108       0.00000000
Si       1.37429120       1.36107838      -1.36123581       0.00000000
Si      -2.66178440      -2.68505466       0.15410338       0.00000000
Si      -2.81240174      -0.01055592      -2.54414408       0.00000000
Si       0.06991179      -2.70224387      -2.66974037       0.00000000
Si       2.69441652       2.70205490       0.03323055       0.00000000
Si       2.65022175      -2.74859381       0.14275423       0.00000000
Si      -2.68069709       2.73500958       0.09581134       0.00000000
