10
Lattice="16.290000149 0.0 0.0 0.0 16.290000149 0.0 0.0 0.0 29.1751946751" Properties=species:S:1:pos:R:3:initial_magmoms:R:1 pbc="T T T"
Si       1.34486332       1.46215783      -1.23376530       0.00000000
Si       1.38570235      -1.33990138       1.37142379       0.00000000
Si      -1.36057991       1.45834597       1.28659691       0.00000000
Si      -1.21977664      -1.49017663      -1.39775440       0.00000000
Si      -2.67977670      -2.66883959       0.01814697       0.00000000
Si      -2.66360073       0.10453293       2.72073278       0.00000000
Si      -0.01247325       2.70418889      -2.69082820       0.00000000
Si       2.79017729       0.26898048      -2.59096151       0.00000000
Si       0.03980787      -2.66893733       2.75259209       0.00000000
Si       0.03007949       2.74537002       2.72105371       0.00000000
