10
Lattice="16.290000149 0.0 0.0 0.0 16.290000149 0.0 0.0 0.0 29.1751946751" Properties=species:S:1:pos:R:3:initial_magmoms:R:1 pbc="T T T"
Si      -1.31101670      -1.34144486       1.36335685       0.00000000
Si      -1.46075438       1.29901104      -1.27279704       0.00000000
Si       1.23953143       1.35494438       1.44423049       0.00000000
Si       1.37946416      -1.38712202      -1.30249739       0.00000000
Si       2.62086806      -0.09622096       2.60061850       0.00000000
Si      -0.07695145       2.63281019      -2.65535117       0.00000000
Si       2.64678545       2.65261883       0.05654153       0.00000000
Si      -2.60783103       0.07725793       2.70427797       0.00000000
Si      -2.57023371      -2.81562471       0.05251535       0.00000000
Si       2.72478197      -0.04228675      -2.66856753       0.00000000
