10
Lattice="16.290000149 0.0 0.0 0.0 16.290000149 0.0 0.0 0.0 29.1751946751" Properties=species:S:1:pos:R:3:initial_magmoms:R:1 pbc="T T T"
Si       1.36114354       1.34913781      -1.35244532       0.00000000
Si      -1.35185824       1.36210267       1.36014758       0.00000000
Si       1.36943515      -1.36109467       1.34553080       0.00000000
Si      -1.36824598      -1.36029646      -1.35950572       0.00000000
Si      -0.08296497      -2.67344966       2.64251408       0.00000000
Si      -0.02806767       2.69732592      -2.68621852       0.00000000
Si       2.66277971      -2.72080469      -0.06608182       0.00000000
Si       2.72383463       2.68976736       0.02590757       0.00000000
Si       2.68159466      -0.01888011      -2.73622481       0.00000000
Si      -2.69717605       0.01726740       2.72621772       0.00000000
