10
Lattice="16.290000149 0.0 0.0 0.0 16.290000149 0.0 0.0 0.0 29.1751946751" Properties=species:S:1:pos:R:3:initial_magmoms:R:1 pbc="T T T"
Si      -1.53960049      -1.31356045      -1.18961856       0.00000000
Si      -1.40853115       1.18001503       1.46984631       0.00000000
Si       1.38851074      -1.31491252       1.43040144       0.00000000
Si       0.78258790       1.49958248      -1.70756579       0.00000000
H        1.18100872      -2.08637435      -2.24155938       0.00000000
Si      -1.28562310       2.21967542      -2.55659313       0.00000000
Si      -0.17523153      -2.66574449      -2.51125488       0.00000000
Si      -2.57040727       0.23107365      -2.67201020       0.00000000
Si       0.03829779       2.62114084       2.74506489       0.00000000
H       -0.60592285       3.77835150       0.02199810       0.00000000
