10
Lattice="16.290000149 0.0 0.0 0.0 16.290000149 0.0 0.0 0.0 29.1751946751" Properties=species:S:1:pos:R:3:initial_magmoms:R:1 pbc="T T T"
Si       1.22577364      -0.24122232      -1.96594132       0.00000000
Si      -0.35080515       2.12115350       0.92806294       0.00000000
Si      -2.06415479      -0.71423506      -0.86253546       0.00000000
Si       1.21889926      -1.32080950       1.51923991       0.00000000
H        2.54021375      -0.69463819      -1.35755098       0.00000000
H       -2.53653221       0.29566350       1.72956389       0.00000000
H        0.36383715      -3.05945751      -0.23669835       0.00000000
H       -1.25628481       2.04639869       2.14729433       0.00000000
H       -3.19412694      -0.64378081       0.13866970       0.00000000
Si      -2.27216180       0.84093868      -2.64292254       0.00000000
