10
Lattice="16.290000149 0.0 0.0 0.0 16.290000149 0.0 0.0 0.0 29.1751946751" Properties=species:S:1:pos:R:3:initial_magmoms:R:1 pbc="T T T"
Si       1.31582476       1.35703846      -1.38544247       0.00000000
Si      -1.38525274       1.48144519       1.21222934       0.00000000
Si       1.60054138      -1.30135924       1.21044965       0.00000000
Si      -1.50335524      -1.33991767      -1.30786563       0.00000000
Si      -1.69057622      -2.39015027       2.10668246       0.00000000
Si      -2.23401062      -0.00741195       2.84280179       0.00000000
Si       2.36175680      -0.11559384      -2.86337031       0.00000000
Si       3.47392398       0.16122213       1.36461138       0.00000000
Si      -0.18164979       2.67559994      -2.64233903       0.00000000
Si       3.13206204       2.11108628      -0.00878173       0.00000000
