10
Lattice="16.290000149 0.0 0.0 0.0 16.290000149 0.0 0.0 0.0 29.1751946751" Properties=species:S:1:pos:R:3:initial_magmoms:R:1 pbc="T T T"
Si      -1.34229601      -1.28497150      -1.43136423       0.00000000
Si       1.35140212       1.38930895      -1.35197852       0.00000000
Si      -1.11918817       1.10361493       1.76696649       0.00000000
Si       1.34270326      -1.41356476       1.37123415       0.00000000
Si       0.74010358       1.95830237       3.01172617       0.00000000
Si       2.41284224       0.27605034       2.75559714       0.00000000
Si      -2.78932044      -0.41280489       2.48984029       0.00000000
Si       0.04826727      -2.63836100      -2.74573592       0.00000000
Si       2.72865648       0.03422529      -2.71078404       0.00000000
Si      -0.04882113      -3.23439582       2.12465438       0.00000000
