10
Lattice="16.290000149 0.0 0.0 0.0 16.290000149 0.0 0.0 0.0 29.1751946751" Properties=species:S:1:pos:R:3:initial_magmoms:R:1 pbc="T T T"
Si      -0.45271539      -1.28472715       0.66014713       0.00000000
H        0.51052860      -1.53924211      -1.81332587       0.00000000
Si       1.54250011      -0.43119630      -2.02712170       0.00000000
Si       2.71353610      -0.59223925      -0.01318719       0.00000000
Si      -1.26734572      -0.29813958       2.60161046       0.00000000
Si      -2.32819940      -1.99497116      -0.61346682       0.00000000
Si       1.55598823      -2.65206089       0.57696865       0.00000000
Si      -2.76755700       1.01335204       1.30672779       0.00000000
Si      -1.85518667       2.84886039       0.13370992       0.00000000
Si       0.28968507       1.21007008      -3.18954898       0.00000000
