10
Lattice="16.290000149 0.0 0.0 0.0 16.290000149 0.0 0.0 0.0 29.1751946751" Properties=species:S:1:pos:R:3:initial_magmoms:R:1 pbc="T T T"
Si       2.06821100      -0.72009294       0.84902734       0.00000000
Si       0.75580714       0.58222741      -2.15560926       0.00000000
Si      -1.28478417      -1.98860177      -0.11541707       0.00000000
Si      -0.60154084       1.51910767       1.75841816       0.00000000
H        0.67970026       1.55867608       2.57859123       0.00000000
H        0.14201622       1.88753861      -2.59653398       0.00000000
Si      -0.08174322       3.51394851       0.06109286       0.00000000
Si       1.28562310      -2.21967542       2.55659313       0.00000000
Si       3.12205998      -1.39183390      -1.21943561       0.00000000
Si      -1.96324801       0.13466454       3.09318331       0.00000000
