10
Lattice="10.86 0.0 0.0 0.0 10.86 0.0 0.0 0.0 10.86" Properties=species:S:1:pos:R:3:initial_magmoms:R:1 pbc="T T T"
Si       1.16133582       1.32215070       1.30129950       0.00000000
Si      -1.52796942       1.17341214      -1.19521902       0.00000000
Si       1.18703058      -1.54158786      -1.19521902       0.00000000
Si      -1.52796942      -1.54158786       1.51978098       0.00000000
Si      -0.20373360       2.69539770      -2.37921966       0.00000000
Si       2.49936384      -0.12279402       2.68997856       0.00000000
Si       2.73907662      -0.17288034      -2.45365410       0.00000000
Si      -0.31184490       2.39376120       2.83443828       0.00000000
Si      -2.88546942       2.53091214       0.16228098       0.00000000
Si      -2.88546942      -0.18408786      -2.55271902       0.00000000
