10
Lattice="10.86 0.0 0.0 0.0 10.86 0.0 0.0 0.0 10.86" Properties=species:S:1:pos:R:3:initial_magmoms:R:1 pbc="T T T"
Si       1.16295396      -1.36870752      -1.45656492       0.00000000
Si      -1.55204604      -1.36870752       1.25843508       0.00000000
Si      -1.55204604       1.34629248      -1.45656492       0.00000000
Si       2.29191612       2.44701864      -0.30440580       0.00000000
Si       2.35676118      -0.15806730       2.45884518       0.00000000
Si      -2.73907662       0.17288034       2.45365410       0.00000000
Si       2.52045396      -2.72620752      -0.09906492       0.00000000
Si       2.52045396      -0.01120752      -2.81406492       0.00000000
Si      -0.19454604      -2.72620752       2.61593508       0.00000000
Si      -0.19454604       2.70379248      -2.81406492       0.00000000
