10
Lattice="16.28999089631971 0.0 0.0 0.0 16.28999089631971 0.0 0.0 0.0 34.32429715621058" Properties=species:S:1:pos:R:3:initial_magmoms:R:1 pbc="T T T"
Si       1.35700587      -1.35662957      -1.35708050       0.00000000
Si      -1.35770634       1.35715248      -1.35670293       0.00000000
Si       1.35878148       1.35759231       1.35817887       0.00000000
Si      -1.35773892      -1.36033717       1.35708050       0.00000000
Si       0.00097740      -2.71416554       2.71275369       0.00000000
Si       0.00102627      -2.71334043      -2.71529369       0.00000000
Si       0.00004887       2.71366965      -2.71505342       0.00000000
Si       2.71510317      -0.00237834       2.71371477       0.00000000
Si       2.71446786       0.00086337      -2.71440126       0.00000000
Si       2.71502172      -2.71442301      -0.00058351       0.00000000
