10
Lattice="16.28999089631971 0.0 0.0 0.0 16.28999089631971 0.0 0.0 0.0 34.32429715621058" Properties=species:S:1:pos:R:3:initial_magmoms:R:1 pbc="T T T"
Si       0.86245776       1.63849707      -1.49108263       0.00000000
Si      -1.75606200      -0.97862175      -1.31654348       0.00000000
Si       1.60016670      -1.92946905      -0.15209105       0.00000000
Si      -0.16656525       0.88343928       2.46386808       0.00000000
Si      -2.40854166       2.56303602      -0.16956212       0.00000000
Si       2.75734314       1.67135400       1.63243016       0.00000000
Si       2.29645017       0.38247291      -2.81957097       0.00000000
Si      -0.43753311      -2.33028613      -2.80769475       0.00000000
Si       2.16531567       3.02269095      -0.12284673       0.00000000
Si       1.26280080      -2.93841952       2.01923088       0.00000000
