10
Lattice="16.28999089631971 0.0 0.0 0.0 16.28999089631971 0.0 0.0 0.0 34.32429715621058" Properties=species:S:1:pos:R:3:initial_magmoms:R:1 pbc="T T T"
Si      -1.55937654      -0.95713265      -1.40396751       0.00000000
Si      -0.27264573       2.30986661       0.27661967       0.00000000
Si      -0.63658062      -0.85333277       2.12910302       0.00000000
Si       2.23381512      -0.48889289      -0.70800767       0.00000000
Si       0.44787726       0.67469433       3.51494729       0.00000000
Si      -0.96545943       2.38154261       2.61609642       0.00000000
Si      -1.08999648      -3.25412039      -1.35024996       0.00000000
Si       3.63762216       0.70605095       0.88234088       0.00000000
Si      -0.20098602      -3.09034073       2.23341462       0.00000000
Si      -3.73806141      -0.77264840      -0.55825068       0.00000000
