10
Lattice="16.28999089631971 0.0 0.0 0.0 16.28999089631971 0.0 0.0 0.0 34.32429715621058" Properties=species:S:1:pos:R:3:initial_magmoms:R:1 pbc="T T T"
Si       0.27264573      -2.30986661      -0.27661967       0.00000000
Si      -1.65193632       1.17784845      -1.22472593       0.00000000
Si       1.90848753       1.27902564      -0.72829334       0.00000000
Si      -0.69281370       0.07167600       2.33947675       0.00000000
Si      -0.74474622       3.27634254      -0.43540395       0.00000000
Si       1.46517147       3.19898133       0.52052826       0.00000000
Si      -0.36393489      -3.16319939       1.85248335       0.00000000
Si       0.72052299      -1.63517228       3.23832762       0.00000000
Si       2.50646085      -2.79875951      -0.98462734       0.00000000
Si      -1.28673081      -3.26699927      -1.68058718       0.00000000
