10
Lattice="16.28999089631971 0.0 0.0 0.0 16.28999089631971 0.0 0.0 0.0 34.32429715621058" Properties=species:S:1:pos:R:3:initial_magmoms:R:1 pbc="T T T"
Si      -0.44331606       1.91995569       1.24882160       0.00000000
Si       2.20674114      -0.71312733       0.56666014       0.00000000
Si      -1.90848753      -1.27902564       0.72829334       0.00000000
Si      -0.09930384       0.42290469      -2.39298836       0.00000000
Si      -2.65323375       1.99731690       0.29288939       0.00000000
Si       2.22119037       0.80710434      -2.67345235       0.00000000
Si      -3.56042385      -0.10117719      -0.49643259       0.00000000
Si       1.18252368       3.38646294       0.31097831       0.00000000
Si       3.30366087      -0.89847495      -1.50433181       0.00000000
Si       2.00178036      -2.88284130       1.33401455       0.00000000
