10
Lattice="16.28999089631971 0.0 0.0 0.0 16.28999089631971 0.0 0.0 0.0 34.32429715621058" Properties=species:S:1:pos:R:3:initial_magmoms:R:1 pbc="T T T"
Si      -0.91439028      -1.76490747      -1.26537420       0.00000000
Si      -1.40323689       1.26325692       1.43276218       0.00000000
Si       1.32144480      -1.42890993       1.45220347       0.00000000
Si       1.27133676       1.39080762      -1.60429250       0.00000000
Si       2.67853212       2.60442891      -0.06691182       0.00000000
Si       2.56456728      -0.24426855      -2.76328736       0.00000000
Si      -1.47424500      -0.73086714      -3.40295532       0.00000000
Si      -2.63761164      -2.77483860       0.07551006       0.00000000
Si       2.61223182      -2.80134243       0.05243383       0.00000000
Si      -0.02726946       2.61726543       2.81219810       0.00000000
