10
Lattice="16.28999089631971 0.0 0.0 0.0 16.28999089631971 0.0 0.0 0.0 34.32429715621058" Properties=species:S:1:pos:R:3:initial_magmoms:R:1 pbc="T T T"
Si       1.35770634      -1.35715248       1.35670293       0.00000000
Si       1.35775521       1.35651717      -1.35835049       0.00000000
Si      -1.35785295       1.35848826       1.35642833       0.00000000
Si      -1.35848826      -1.35762489      -1.35776698       0.00000000
Si       2.71471221      -2.71378205      -0.00037757       0.00000000
Si      -2.71492072      -0.00263898      -2.71422964       0.00000000
Si      -2.71486696      -2.71434406      -0.00017162       0.00000000
Si      -0.00105885       2.71580364       2.71364613       0.00000000
Si       0.00130320      -2.71376902      -2.71601450       0.00000000
Si      -2.71588998       0.00030951       2.71422964       0.00000000
