10
Lattice="16.28999089631971 0.0 0.0 0.0 16.28999089631971 0.0 0.0 0.0 34.32429715621058" Properties=species:S:1:pos:R:3:initial_magmoms:R:1 pbc="T T T"
Si       1.38359115      -0.05983317       1.91505658       0.00000000
Si      -1.93460040      -0.82362240       1.10057488       0.00000000
Si       0.51264630      -1.61821602      -1.69654798       0.00000000
Si      -1.55370762       1.97930016      -0.54033339       0.00000000
Si       0.80866818       2.83375953       0.47292043       0.00000000
Si       1.86111621       1.99498743      -1.64622854       0.00000000
Si      -3.08113132      -1.03636980      -0.95503978       0.00000000
Si       3.49954812       0.40070142      -0.81190738       0.00000000
Si      -0.05859513       0.84686823       3.51728134       0.00000000
Si      -2.33388459       0.77506191       2.79482313       0.00000000
