10
Lattice="16.28999089631971 0.0 0.0 0.0 16.28999089631971 0.0 0.0 0.0 34.32429715621058" Properties=species:S:1:pos:R:3:initial_magmoms:R:1 pbc="T T T"
Si      -0.36719289       0.48842307      -2.25153785       0.00000000
Si       0.42272550       2.05024311       1.06920245       0.00000000
Si       2.37944772      -0.43984629      -0.10712619       0.00000000
Si      -2.27488221      -0.32040801       0.79920738       0.00000000
Si       2.62796796       1.95406695       0.29463993       0.00000000
Si       0.98258022       1.01620278       3.20678358       0.00000000
Si      -1.82426823       2.31958197      -1.93407225       0.00000000
Si       1.74242727       1.09203273      -3.06461226       0.00000000
Si       2.92294728      -2.08598337       1.42600372       0.00000000
Si       0.16083117      -3.84475114      -0.43708584       0.00000000
