10
Lattice="16.28999089631971 0.0 0.0 0.0 16.28999089631971 0.0 0.0 0.0 34.32429715621058" Properties=species:S:1:pos:R:3:initial_magmoms:R:1 pbc="T T T"
Si      -1.35645201       1.35936792      -1.36010103       0.00000000
Si      -1.35184194      -1.36135530       1.36466617       0.00000000
Si       1.35920502      -1.35980775      -1.35962049       0.00000000
Si       1.37655387       1.34819298       1.37379644       0.00000000
Si      -0.06667497       2.65409712       2.70719315       0.00000000
Si      -2.71155195      -2.71407690       0.00154459       0.00000000
Si      -2.71192662       2.71536381      -0.00432486       0.00000000
Si       2.71595025      -2.71296918       0.00123568       0.00000000
Si      -2.71331127      -0.00016290      -2.71721585       0.00000000
Si       0.00192222      -2.71554300      -2.71694126       0.00000000
