10
Lattice="16.28999089631971 0.0 0.0 0.0 16.28999089631971 0.0 0.0 0.0 34.32429715621058" Properties=species:S:1:pos:R:3:initial_magmoms:R:1 pbc="T T T"
Si       0.91528623       1.78338033       1.21875350       0.00000000
Si      -1.17351531       1.51508403      -1.35718347       0.00000000
Si       1.54495989      -1.19132028      -1.32886591       0.00000000
Si      -1.79233983      -0.99776250       1.52602478       0.00000000
Si       0.56910744       0.67722417       3.30979085       0.00000000
Si      -3.29137821       0.95669541       1.25898160       0.00000000
Si      -2.53057005       0.17405865      -2.69658694       0.00000000
Si       0.18524988      -2.54404188      -2.69198748       0.00000000
Si      -2.48150457       2.85839001       0.00154459       0.00000000
Si      -2.64790692      -2.71212210       0.05447269       0.00000000
