10
Lattice="16.28999089631971 0.0 0.0 0.0 16.28999089631971 0.0 0.0 0.0 34.32429715621058" Properties=species:S:1:pos:R:3:initial_magmoms:R:1 pbc="T T T"
Si      -0.43559460       2.23700796      -0.10431160       0.00000000
Si      -0.23791545      -0.83489508       2.19037192       0.00000000
Si       2.28265254      -0.39363156      -0.52711853       0.00000000
Si      -1.45966545      -1.09429704      -1.53326721       0.00000000
Si       1.67050692      -2.74159071      -0.55179771       0.00000000
Si       0.72268956      -3.01130424       1.69339015       0.00000000
Si      -2.65080654       2.31883263       0.76172523       0.00000000
Si      -0.39586329      -3.15894051      -1.70787501       0.00000000
Si       0.95260662       0.72830961       3.48055433       0.00000000
Si      -0.88901046      -0.16377966      -3.58366457       0.00000000
