10
Lattice="16.28999089631971 0.0 0.0 0.0 16.28999089631971 0.0 0.0 0.0 34.32429715621058" Properties=species:S:1:pos:R:3:initial_magmoms:R:1 pbc="T T T"
Si      -1.34625447      -1.35606180       1.38949981       0.00000000
Si       1.36998900       1.36184066       1.38534657       0.00000000
Si       1.43855361      -1.39028709      -1.38625616       0.00000000
Si      -1.55119896       1.31469414      -1.37156192       0.00000000
Si      -2.68833870      -2.70277239       0.01105929       0.00000000
Si      -2.70894555       2.71677118       0.05433196       0.00000000
Si       2.71508688       2.72072965       0.00770581       0.00000000
Si      -2.70179424       0.00347963       2.74688923       0.00000000
Si       0.01133784      -2.71279074       2.74788463       0.00000000
Si       0.01164735       2.71768342       2.74778166       0.00000000
