10
Lattice="16.28999089631971 0.0 0.0 0.0 16.28999089631971 0.0 0.0 0.0 34.32429715621058" Properties=species:S:1:pos:R:3:initial_magmoms:R:1 pbc="T T T"
Si       0.59202747      -1.35133695       1.75527689       0.00000000
Si      -1.30285791      -1.38419388      -1.36823590       0.00000000
Si       1.43912376       1.37606517      -1.25235701       0.00000000
Si      -1.38337938       1.39444029       1.41399021       0.00000000
Si       0.28536822       3.04601823       1.85691119       0.00000000
Si       0.61828695      -0.02710656       3.62955618       0.00000000
Si      -2.16531567      -3.02269095       0.12284673       0.00000000
Si      -2.60553663       0.08514783      -2.67255992       0.00000000
Si       0.13113450      -2.64021804      -2.69672424       0.00000000
Si       2.29588002       3.07876113       0.13159943       0.00000000
