10
Lattice="16.28999089631971 0.0 0.0 0.0 16.28999089631971 0.0 0.0 0.0 34.32429715621058" Properties=species:S:1:pos:R:3:initial_magmoms:R:1 pbc="T T T"
Si       1.08247050      -1.70557929       1.16912054       0.00000000
Si      -2.32049421      -0.38419965       0.28046399       0.00000000
Si      -0.02541240       2.22741315       0.82828008       0.00000000
Si       1.67725098       0.39866517      -1.63648043       0.00000000
Si       3.10091553      -0.53823789       1.29272240       0.00000000
Si      -1.42102557       2.97136116      -0.97553139       0.00000000
Si       3.27052701       1.31716053      -0.17151861       0.00000000
Si      -2.22119037      -0.80710434       2.67345235       0.00000000
Si      -0.01444923      -1.52023167       3.24011249       0.00000000
Si      -2.62560591      -2.43946008      -0.84873737       0.00000000
