10
Lattice="16.28999089631971 0.0 0.0 0.0 16.28999089631971 0.0 0.0 0.0 34.32429715621058" Properties=species:S:1:pos:R:3:initial_magmoms:R:1 pbc="T T T"
Si      -2.11059756      -0.59888556       0.80143846       0.00000000
Si       1.81294668      -1.19513214       0.91433114       0.00000000
Si       0.12678507       2.12356440       1.04785273       0.00000000
Si       0.55361565      -0.88215237      -2.20094381       0.00000000
Si       1.22934114       3.18977748      -0.76059253       0.00000000
Si      -2.43273231      -2.54800035      -0.41937450       0.00000000
Si       3.59153775       0.03479544      -0.05567404       0.00000000
Si      -1.54719162      -1.68596613       2.93987769       0.00000000
Si       1.44259353      -3.45113424       0.32384992       0.00000000
Si       2.16119430      -0.33304905       3.09203739       0.00000000
