10
Lattice="16.28999089631971 0.0 0.0 0.0 16.28999089631971 0.0 0.0 0.0 34.32429715621058" Properties=species:S:1:pos:R:3:initial_magmoms:R:1 pbc="T T T"
Si       0.94882734       1.62012195      -1.40578125       0.00000000
Si      -1.40719536      -1.21362129      -1.53738068       0.00000000
Si       1.36648665      -1.34096022       1.49742919       0.00000000
Si      -1.35166275       1.35681039       1.50089938       0.00000000
Si      -2.67853212      -2.60442891       0.06691182       0.00000000
Si      -0.67515534       3.50932212      -1.25403344       0.00000000
Si       2.72984562       2.67486687      -0.08866314       0.00000000
Si      -2.66240502       2.74550031       0.05440061       0.00000000
Si       2.65302198      -2.79458208       0.08108433       0.00000000
Si      -0.11396484      -2.84869746      -2.69637554       0.00000000
