10
Lattice="16.28999089631971 0.0 0.0 0.0 16.28999089631971 0.0 0.0 0.0 34.32429715621058" Properties=species:S:1:pos:R:3:initial_magmoms:R:1 pbc="T T T"
Si      -1.35413883      -1.34397387       1.37821054       0.00000000
Si       1.36028016       1.37028222       1.37687190       0.00000000
Si      -1.31074227       1.38868992      -1.44649877       0.00000000
Si       1.35166275      -1.35681039      -1.50089938       0.00000000
Si       0.67650741       2.15251173      -2.75493283       0.00000000
Si       2.30049009       0.26331156      -2.90668063       0.00000000
Si       2.71814940      -2.69777061      -0.00347019       0.00000000
Si      -2.73010626      -2.69798238      -0.00122538       0.00000000
Si      -2.69767287       2.73618243       0.00206976       0.00000000
Si       0.00273672      -2.70485676       2.73879212       0.00000000
