10
Lattice="16.28999089631971 0.0 0.0 0.0 16.28999089631971 0.0 0.0 0.0 34.32429715621058" Properties=species:S:1:pos:R:3:initial_magmoms:R:1 pbc="T T T"
Si      -1.34462547      -1.34809524      -1.37376211       0.00000000
Si       1.36590021       1.37065689      -1.36693157       0.00000000
Si      -1.34415306       1.40154273       1.39775481       0.00000000
Si       1.33004592      -1.40090742       1.42088940       0.00000000
Si       0.47247516       2.31590043       2.55503346       0.00000000
Si       2.18680218       0.30178854       2.80484583       0.00000000
Si      -2.71461447      -2.69182476       0.00068649       0.00000000
Si      -2.70189198       2.72227077      -0.00350108       0.00000000
Si       0.00912240      -2.70368388      -2.72919504       0.00000000
Si      -2.70638802       0.00741195      -2.72668937       0.00000000
