10
Lattice="16.28999089631971 0.0 0.0 0.0 16.28999089631971 0.0 0.0 0.0 34.32429715621058" Properties=species:S:1:pos:R:3:initial_magmoms:R:1 pbc="T T T"
Si      -1.35774335       1.35881406      -1.35567320       0.00000000
Si      -1.35701030      -1.35762489       1.35790428       0.00000000
Si       1.35737189       1.35754344       1.35804158       0.00000000
Si       1.35795670      -1.36068741      -1.35605077       0.00000000
Si      -0.00881882       2.71394658      -2.69310989       0.00000000
Si      -2.71439084       2.71269225       0.00058351       0.00000000
Si      -2.71398359      -0.00040725       2.71484748       0.00000000
Si       0.00001179      -2.71472850       2.71464153       0.00000000
Si      -2.71500986      -2.71443528       0.00034324       0.00000000
Si       0.00090873       2.71464705       2.71495045       0.00000000
