10
Lattice="16.28999089631971 0.0 0.0 0.0 16.28999089631971 0.0 0.0 0.0 34.32429715621058" Properties=species:S:1:pos:R:3:initial_magmoms:R:1 pbc="T T T"
Si      -1.17134874      -1.42666191       1.46413804       0.00000000
Si       0.19287360      -1.46455245      -1.87925632       0.00000000
Si      -1.30122891       2.06597925      -0.22022481       0.00000000
Si       2.16251379       0.38670831       1.20275837       0.00000000
Si      -0.20510739       2.90194947       1.66926015       0.00000000
Si       2.09274372       2.70814734       1.25678484       0.00000000
Si      -0.03626154      -3.49278777       1.13023109       0.00000000
Si       2.45591298      -1.20185991      -2.60693183       0.00000000
Si      -1.05513588      -0.61532217       3.68406320       0.00000000
Si      -0.28836558      -3.69823725      -1.20825026       0.00000000
