10
Lattice="16.28999089631971 0.0 0.0 0.0 16.28999089631971 0.0 0.0 0.0 34.32429715621058" Properties=species:S:1:pos:R:3:initial_magmoms:R:1 pbc="T T T"
Si      -1.35728280      -1.35573525      -1.35732077       0.00000000
Si       1.35674523      -1.35316143       1.36085617       0.00000000
Si       1.35806472       1.35925389      -1.35738941       0.00000000
Si      -1.35920502       1.35980775       1.35962049       0.00000000
Si       2.71394658      -2.71316466      -0.00013730       0.00000000
Si      -0.00004887      -2.71267596      -2.71450423       0.00000000
Si      -2.71443528       0.00171045      -2.71457288       0.00000000
Si       2.71524978       0.00198738      -2.71488180       0.00000000
Si       2.71422351       2.71640637       0.00003432       0.00000000
Si       2.71269225       0.00935046       2.71797099       0.00000000
