10
Lattice="16.28999089631971 0.0 0.0 0.0 16.28999089631971 0.0 0.0 0.0 34.32429715621058" Properties=species:S:1:pos:R:3:initial_magmoms:R:1 pbc="T T T"
Si       0.81208908       1.87914924       1.13910289       0.00000000
Si       1.68073704      -1.66733689      -0.15689061       0.00000000
Si       0.79397460       0.31669389      -2.25713516       0.00000000
Si      -2.01096792      -0.85597923       1.02542076       0.00000000
Si      -0.59618142      -2.14656438       2.49390082       0.00000000
Si       2.16808497       0.56145114       2.48520991       0.00000000
Si       0.78574815      -3.44662910       1.14464627       0.00000000
Si       3.54965846      -0.69176951       0.98930471       0.00000000
Si       1.76120964       3.49832637      -0.23704617       0.00000000
Si       0.20546577      -1.59939618      -3.63357457       0.00000000
