10
Lattice="16.28999089631971 0.0 0.0 0.0 16.28999089631971 0.0 0.0 0.0 34.32429715621058" Properties=species:S:1:pos:R:3:initial_magmoms:R:1 pbc="T T T"
Si       1.71282834       0.86928327      -1.37736617       0.00000000
Si      -0.88972722      -1.92225977      -1.25232268       0.00000000
Si      -1.93820049       1.55134557      -0.06603998       0.00000000
Si       1.49490072       0.07498287       2.00532953       0.00000000
Si       0.42481062       2.19401865      -2.78088746       0.00000000
Si      -2.28881016      -0.54974352      -2.74385152       0.00000000
Si       1.99897263      -2.18239478       2.25074840       0.00000000
Si       2.67978223       2.65046445      -0.02570891       0.00000000
Si      -0.97573842       3.39367941      -1.33319077       0.00000000
Si      -2.38865157       2.60747514       1.96650873       0.00000000
