10
Lattice="16.28999089631971 0.0 0.0 0.0 16.28999089631971 0.0 0.0 0.0 34.32429715621058" Properties=species:S:1:pos:R:3:initial_magmoms:R:1 pbc="T T T"
Si      -2.10196386      -0.71237799       0.82398954       0.00000000
Si      -0.31635180       2.29092786      -0.52248474       0.00000000
Si       0.60269742      -0.82153728      -2.14255815       0.00000000
Si       1.39996164      -0.01474245       2.07713600       0.00000000
Si       2.44795599       0.78902244      -2.01353305       0.00000000
Si      -0.06752205       1.81348425       2.88468419       0.00000000
Si       2.01336159       2.68654680      -0.67124633       0.00000000
Si      -1.77948702       0.15755688       2.96493445       0.00000000
Si      -1.85839578      -3.07590128       0.55492122       0.00000000
Si       0.42630930      -3.63847643       0.29985723       0.00000000
