10
Lattice="16.28999089631971 0.0 0.0 0.0 16.28999089631971 0.0 0.0 0.0 34.32429715621058" Properties=species:S:1:pos:R:3:initial_magmoms:R:1 pbc="T T T"
Si      -1.61974728       1.27563732       1.01064517       0.00000000
Si       0.46170747      -1.73707112       1.47244452       0.00000000
Si      -0.32247684      -0.86993487      -2.14094491       0.00000000
Si       1.71196497       1.65592737      -0.08025025       0.00000000
Si       3.17944866      -0.17229933      -0.88779844       0.00000000
Si       1.77948702      -0.15755688      -2.96493445       0.00000000
Si       2.81285638      -1.40960628       1.47223858       0.00000000
Si      -1.45013580       3.13103574      -0.45359584       0.00000000
Si      -0.77515965      -1.18488573       3.41616191       0.00000000
Si      -1.19316105       1.14492636       3.31075193       0.00000000
