10
Lattice="16.28999089631971 0.0 0.0 0.0 16.28999089631971 0.0 0.0 0.0 34.32429715621058" Properties=species:S:1:pos:R:3:initial_magmoms:R:1 pbc="T T T"
Si      -1.34314308      -1.34441370       1.36988347       0.00000000
Si       1.36806678       1.37090124       1.36964319       0.00000000
Si       1.39483125      -1.38378663      -1.33994923       0.00000000
Si      -1.41675759       1.27970982      -1.43281023       0.00000000
Si       0.52124742       1.94693193      -2.60117495       0.00000000
Si       2.34395181       0.23539050      -2.71609829       0.00000000
Si      -2.71568961      -2.69920413      -0.01427892       0.00000000
Si       0.01080027      -2.70234810       2.72565964       0.00000000
Si      -2.70347211       0.01242927       2.72531639       0.00000000
Si      -2.70329292       2.73333168      -0.01646537       0.00000000
