10
Lattice="16.28999089631971 0.0 0.0 0.0 16.28999089631971 0.0 0.0 0.0 34.32429715621058" Properties=species:S:1:pos:R:3:initial_magmoms:R:1 pbc="T T T"
Si      -0.60512463      -0.50945346      -2.19164745       0.00000000
Si      -1.93800501      -0.66722211       1.16836472       0.00000000
Si       0.70206642       1.95361083       1.26433894       0.00000000
Si       1.82270439      -1.71154143      -0.11492334       0.00000000
Si       1.05114483       1.17208179      -2.82918731       0.00000000
Si      -0.52124742      -1.94693193       2.60117495       0.00000000
Si       2.19574389       0.77910183       2.63338146       0.00000000
Si       0.87358383      -3.33071856       1.26122572       0.00000000
Si       3.42551400      -0.64355274       1.27922196       0.00000000
Si      -3.26168154      -2.05034085      -0.30961086       0.00000000
