10
Lattice="16.28999089631971 0.0 0.0 0.0 16.28999089631971 0.0 0.0 0.0 34.32429715621058" Properties=species:S:1:pos:R:3:initial_magmoms:R:1 pbc="T T T"
Si       1.24706466      -1.23807258       1.64482124       0.00000000
Si       1.45828080      -0.12463479      -1.95700090       0.00000000
Si      -1.71743841      -1.81804545      -0.01407297       0.00000000
Si      -0.78921792       2.58883938       0.79237684       0.00000000
Si      -0.30452526      -1.03184118      -3.31377247       0.00000000
Si       0.46509579      -0.05835078       3.57099890       0.00000000
Si       0.56040858       2.31941907       2.86350609       0.00000000
Si      -1.26698733      -2.87417502      -2.04662169       0.00000000
Si       3.57677805      -0.84245364       1.49605965       0.00000000
Si      -3.85093971      -0.94460823      -0.30679074       0.00000000
