10
Lattice="16.28999089631971 0.0 0.0 0.0 16.28999089631971 0.0 0.0 0.0 34.32429715621058" Properties=species:S:1:pos:R:3:initial_magmoms:R:1 pbc="T T T"
Si       0.89938949       2.17896669      -0.04321431       0.00000000
Si      -0.55143279      -0.71091189      -2.18323247       0.00000000
Si      -1.61274258       0.13323591       1.72431636       0.00000000
Si       1.30250997      -1.90029366       0.57301014       0.00000000
Si      -0.02989215      -0.51271146       3.40603623       0.00000000
Si       2.69649089       1.88120178       1.45308561       0.00000000
Si       2.27669759       1.97358237      -1.98930008       0.00000000
Si       3.52431611      -1.46124558      -0.20803968       0.00000000
Si       0.56236356      -2.65455324       2.72184964       0.00000000
Si      -3.45655881      -1.22191290       1.20776972       0.00000000
