10
Lattice="16.28999089631971 0.0 0.0 0.0 16.28999089631971 0.0 0.0 0.0 34.32429715621058" Properties=species:S:1:pos:R:3:initial_magmoms:R:1 pbc="T T T"
Si       0.60512463       0.50945346       2.19164745       0.00000000
Si      -2.22505110       0.55825830      -0.67951849       0.00000000
Si       1.65626946       1.68153525      -0.63753985       0.00000000
Si       0.55291518      -2.22405741      -0.97934139       0.00000000
Si       1.29756366       0.74205837      -2.75613963       0.00000000
Si       2.42782902      -1.20208797       2.07672411       0.00000000
Si       2.17924362      -1.38570885      -2.41629457       0.00000000
Si      -2.65655691      -1.54088739       1.88203659       0.00000000
Si      -1.33288038      -0.15776865       3.36001217       0.00000000
Si      -2.57329872      -0.30382479      -2.85722474       0.00000000
