10
Lattice="16.28999089631971 0.0 0.0 0.0 16.28999089631971 0.0 0.0 0.0 34.32429715621058" Properties=species:S:1:pos:R:3:initial_magmoms:R:1 pbc="T T T"
Si       1.49367747      -1.17450900       1.36904252       0.00000000
Si       1.71530998       1.17959148      -1.09879757       0.00000000
Si      -1.23186609       1.54017063       1.32120815       0.00000000
Si      -0.70206642      -1.95361083      -1.26433894       0.00000000
Si       3.42822140      -0.60215985      -1.23817351       0.00000000
Si       0.14475294      -2.52964152       2.70647921       0.00000000
Si      -2.64007143      -2.62083294      -0.09597422       0.00000000
Si      -2.57105070       0.18774225       2.70284083       0.00000000
Si       2.72344758      -2.59716357       0.01488302       0.00000000
Si      -2.56324779       2.84861601      -0.26572169       0.00000000
