10
Lattice="16.28999089631971 0.0 0.0 0.0 16.28999089631971 0.0 0.0 0.0 34.32429715621058" Properties=species:S:1:pos:R:3:initial_magmoms:R:1 pbc="T T T"
Si      -0.96770745      -1.64081025      -1.39202265       0.00000000
Si      -0.20658978      -1.27759212       2.06543141       0.00000000
Si       1.81244169       0.98854236      -1.36459752       0.00000000
Si      -1.62994482       1.95115104       0.11845322       0.00000000
Si      -2.23410834      -0.27746757      -2.82351826       0.00000000
Si      -1.89423378       0.17796825       3.13271170       0.00000000
Si       0.49888125       2.43338391      -2.80213421       0.00000000
Si      -2.76915339      -2.70884781      -0.00885567       0.00000000
Si      -3.45765024       1.12821282      -1.34503266       0.00000000
Si       2.09323472      -1.02607452       3.11582414       0.00000000
