10
Lattice="16.28999089631971 0.0 0.0 0.0 16.28999089631971 0.0 0.0 0.0 34.32429715621058" Properties=species:S:1:pos:R:3:initial_magmoms:R:1 pbc="T T T"
Si      -0.73707363      -1.53785745       1.64094259       0.00000000
Si       2.28470508      -0.56257515      -0.25506399       0.00000000
Si      -0.24356808       2.36352329       0.26906832       0.00000000
Si      -1.12495482      -0.99561222      -2.09628897       0.00000000
Si       0.04368978      -3.55851792       0.56899419       0.00000000
Si       0.49458069      -0.83401542       3.49006216       0.00000000
Si       1.85839578       3.07590128      -0.55492122       0.00000000
Si       2.25572517      -2.91760416       0.09075349       0.00000000
Si      -3.34989189      -0.20554722      -1.55372450       0.00000000
Si      -0.97718823      -3.31278327      -1.51112803       0.00000000
