10
Lattice="16.28999089631971 0.0 0.0 0.0 16.28999089631971 0.0 0.0 0.0 34.32429715621058" Properties=species:S:1:pos:R:3:initial_magmoms:R:1 pbc="T T T"
Si       1.25480241       1.03035879       1.68398528       0.00000000
Si      -2.30599611       0.32109219       0.34125235       0.00000000
Si       0.77729364      -2.22156504       0.11608484       0.00000000
Si       0.40985640       1.29691206      -1.93705847       0.00000000
Si      -0.05810643       2.93152789       2.04270871       0.00000000
Si      -0.40632147      -3.18932136      -1.64839097       0.00000000
Si      -0.93921624       0.34590186      -3.59691376       0.00000000
Si       2.63235064       0.92734083      -2.48305537       0.00000000
Si       3.03126016      -2.15691003      -0.43821855       0.00000000
Si      -2.92149747      -0.45436068       2.47025240       0.00000000
