10
Lattice="16.28999089631971 0.0 0.0 0.0 16.28999089631971 0.0 0.0 0.0 34.32429715621058" Properties=species:S:1:pos:R:3:initial_magmoms:R:1 pbc="T T T"
Si      -1.31290884       1.90116910       0.35872343       0.00000000
Si      -1.25480241      -1.03035879      -1.68398528       0.00000000
Si       2.33382662       0.09016515      -0.44868746       0.00000000
Si      -0.12898422      -0.87268788       2.22507381       0.00000000
Si      -0.47750877      -3.25192383      -1.56790045       0.00000000
Si      -2.98364382       0.28748592       2.12484680       0.00000000
Si      -0.84494601       0.26655327      -3.62104375       0.00000000
Si       3.02651000      -2.13180714      -0.43911098       0.00000000
Si       0.40982382      -3.18642174       2.07219330       0.00000000
Si      -3.56079852      -0.70926660      -1.34273293       0.00000000
