10
Lattice="16.28999089631971 0.0 0.0 0.0 16.28999089631971 0.0 0.0 0.0 34.32429715621058" Properties=species:S:1:pos:R:3:initial_magmoms:R:1 pbc="T T T"
Si       1.20597314       1.72063125       1.05178355       0.00000000
Si      -1.71530998      -1.17959148       1.09879757       0.00000000
Si      -0.42768322       1.25993376      -1.96352324       0.00000000
Si       1.71291142      -1.78175133      -0.13937595       0.00000000
Si       1.88983711       1.10255607      -2.45110016       0.00000000
Si      -0.22163250      -2.35410048       2.46784009       0.00000000
Si       2.50814035       0.35916192       2.44545033       0.00000000
Si       0.88273229      -2.57129505      -2.34112505       0.00000000
Si      -2.94717607       0.36057915       2.42000572       0.00000000
Si      -1.36623157      -1.96112052      -2.99472868       0.00000000
