10
Lattice="16.28999089631971 0.0 0.0 0.0 16.28999089631971 0.0 0.0 0.0 34.32429715621058" Properties=species:S:1:pos:R:3:initial_magmoms:R:1 pbc="T T T"
Si      -1.34503924      -1.34677575       1.37204590       0.00000000
Si       1.35827649      -1.35420399      -1.35684022       0.00000000
Si      -1.35547624       1.36148562      -1.35605077       0.00000000
Si       1.36891386       1.34545626       1.37310995       0.00000000
Si      -0.11476305       2.55114432       2.75129990       0.00000000
Si       2.71502172      -2.71002069       0.00545757       0.00000000
Si       0.00148239      -2.71151937      -2.71405802       0.00000000
Si      -2.71263336       0.00268785      -2.71371477       0.00000000
Si      -2.71296008      -2.71497285       0.00216243       0.00000000
Si       2.71686249       0.00291591      -2.71361180       0.00000000
