10
Lattice="16.28999089631971 0.0 0.0 0.0 16.28999089631971 0.0 0.0 0.0 34.32429715621058" Properties=species:S:1:pos:R:3:initial_magmoms:R:1 pbc="T T T"
Si       1.35176538      -1.72318878       0.87818763       0.00000000
Si       1.09791831       0.47069955      -2.03580953       0.00000000
Si       1.95348540       2.18505915      -0.56425744       0.00000000
Si      -1.24812351       1.25379243       2.51387860       0.00000000
Si      -1.50100395      -2.21788350      -1.91553712       0.00000000
Si       1.14077730      -1.74125439       3.23043303       0.00000000
Si      -1.19324902      -0.96435171       3.52908891       0.00000000
Si      -0.14909423       1.97623764      -3.41461731       0.00000000
Si      -3.54794801       1.00227483       1.46348588       0.00000000
Si      -3.34135823       2.27986695      -0.60194554       0.00000000
