10
Lattice="16.28999089631971 0.0 0.0 0.0 16.28999089631971 0.0 0.0 0.0 34.32429715621058" Properties=species:S:1:pos:R:3:initial_magmoms:R:1 pbc="T T T"
Si       0.61084242      -2.06115741       0.88591060       0.00000000
Si       2.05579800       1.11531114       0.07335106       0.00000000
Si      -0.94300692      -0.08001648      -2.15059004       0.00000000
Si      -1.59294113       1.26346869       1.25572079       0.00000000
Si       1.39101939      -0.85691916      -2.44924592       0.00000000
Si      -0.76646568      -1.85577309       2.83199637       0.00000000
Si      -0.81265760       3.36637737       0.54366285       0.00000000
Si      -3.15277379      -0.71071641      -1.49650587       0.00000000
Si       1.50224751       3.35538162       0.35940992       0.00000000
Si      -3.70616138       1.01186964       0.08756133       0.00000000
