10
Lattice="16.28999089631971 0.0 0.0 0.0 16.28999089631971 0.0 0.0 0.0 34.32429715621058" Properties=species:S:1:pos:R:3:initial_magmoms:R:1 pbc="T T T"
Si      -1.45560110      -1.43044119       1.22984025       0.00000000
Si      -0.59362389       0.21853035      -2.35935053       0.00000000
Si       2.18295774      -1.02576501       0.46320665       0.00000000
Si      -0.44849628       2.24340993       1.11986514       0.00000000
Si       2.26867572      -1.14634359      -2.22857489       0.00000000
Si       0.54348327      -2.93094567      -1.84661389       0.00000000
Si      -0.62542197      -0.64089747       3.43158935       0.00000000
Si      -0.14933043       3.45540222      -0.90386222       0.00000000
Si      -1.06701618      -3.42549378      -0.10719484       0.00000000
Si      -1.39938268       2.39994054      -2.58695507       0.00000000
