10
Lattice="16.28999089631971 0.0 0.0 0.0 16.28999089631971 0.0 0.0 0.0 34.32429715621058" Properties=species:S:1:pos:R:3:initial_magmoms:R:1 pbc="T T T"
Si       1.35755240       1.35610992       1.35632536       0.00000000
Si      -1.35749931      -1.35780408       1.35708050       0.00000000
Si      -1.35772737       1.35749457      -1.35732077       0.00000000
Si       1.35809648      -1.35729909      -1.35749239       0.00000000
Si       0.00149394      -2.71181259       2.71491613       0.00000000
Si      -0.00057489       2.71345788      -2.71525937       0.00000000
Si      -2.71515678      -2.71417464      -0.00054919       0.00000000
Si      -0.00086811       2.71330112       2.71628910       0.00000000
Si       2.71572463       0.00444717       2.71392072       0.00000000
Si       2.71521964       2.71467253      -0.00027459       0.00000000
