10
Lattice="16.28999089631971 0.0 0.0 0.0 16.28999089631971 0.0 0.0 0.0 34.32429715621058" Properties=species:S:1:pos:R:3:initial_magmoms:R:1 pbc="T T T"
Si       0.87817761       2.03669702      -0.79223955       0.00000000
Si       0.35642520      -0.53989947       2.26979839       0.00000000
Si       0.65736666      -2.01966678      -1.06374489       0.00000000
Si      -2.37891504       0.22089568      -0.05893485       0.00000000
Si      -0.36499374      -3.53367567       0.41789855       0.00000000
Si      -1.82225967      -0.35541522       3.11551522       0.00000000
Si      -0.39824163       3.66771698       0.31784317       0.00000000
Si       0.82580526      -2.83688721       2.32351595       0.00000000
Si      -3.12438429      -1.44247950       1.52712316       0.00000000
Si      -2.61704551       2.82705524      -0.05708134       0.00000000
