10
Lattice="16.28999089631971 0.0 0.0 0.0 16.28999089631971 0.0 0.0 0.0 34.32429715621058" Properties=species:S:1:pos:R:3:initial_magmoms:R:1 pbc="T T T"
Si      -1.02236040      -1.51400889       1.48164344       0.00000000
Si       2.17217376      -0.81969651       0.49313745       0.00000000
Si      -0.65736666       2.01966678       1.06374489       0.00000000
Si      -0.11507256      -0.31895820      -2.36762269       0.00000000
Si       0.16843860      -0.81722043       3.38726083       0.00000000
Si      -0.30094146       1.47976731       3.33354328       0.00000000
Si       3.59784198       0.88998786      -0.20416103       0.00000000
Si       2.40536511      -2.85821082      -0.74947145       0.00000000
Si      -1.30165245       1.36471104      -3.37672327       0.00000000
Si      -3.03628170       2.24056246       1.00481004       0.00000000
