10
Lattice="16.28999089631971 0.0 0.0 0.0 16.28999089631971 0.0 0.0 0.0 34.32429715621058" Properties=species:S:1:pos:R:3:initial_magmoms:R:1 pbc="T T T"
Si       1.55937654       0.95713265       1.40396751       0.00000000
Si      -2.17868487       0.18448425       0.84571683       0.00000000
Si       0.46938006      -2.29698774       0.05371756       0.00000000
Si      -0.35642520       0.53989947      -2.26979839       0.00000000
Si      -0.72141894      -2.99377620      -1.85189984       0.00000000
Si       0.92279592       0.10379988       3.53307053       0.00000000
Si       0.30094146      -1.47976731      -3.33354328       0.00000000
Si      -3.48080949      -0.90258003      -0.74267523       0.00000000
Si      -2.73534024       0.76079515      -2.32873324       0.00000000
Si      -0.10127493      -3.22750512       2.10411492       0.00000000
