10
Lattice="16.28999089631971 0.0 0.0 0.0 16.28999089631971 0.0 0.0 0.0 34.51530692428229" Properties=species:S:1:pos:R:3:initial_magmoms:R:1 pbc="T T T"
Si       1.36805049       1.33898913      -1.37643669       0.00000000
Si       1.22559444      -1.50211719       1.34526935       0.00000000
Si      -1.34902377      -1.37689596      -1.37750667       0.00000000
Si      -1.22230386       1.51093008       1.59616126       0.00000000
Si      -1.76204043      -0.61191756       2.38856412       0.00000000
Si      -2.70344116       2.69641854       0.01139006       0.00000000
Si       2.71010214       2.70497079       0.01856925       0.00000000
Si       0.00850338       2.69602758      -2.73371738       0.00000000
Si      -2.70579506      -0.01923849      -2.73578830       0.00000000
Si      -2.70026461      -2.74201262      -0.01149360       0.00000000
