10
Lattice="16.28999089631971 0.0 0.0 0.0 16.28999089631971 0.0 0.0 0.0 34.51530692428229" Properties=species:S:1:pos:R:3:initial_magmoms:R:1 pbc="T T T"
Si      -1.35650088       1.35316143       1.36055964       0.00000000
Si       1.35840681      -1.36155078       1.35993837       0.00000000
Si       1.34754138       1.34933328      -1.38753682       0.00000000
Si      -1.36620972      -1.36014984      -1.38323621       0.00000000
Si       2.64727161      -0.16654896      -2.75743977       0.00000000
Si      -2.71482624       2.71111212       0.00106998       0.00000000
Si       0.00179190       2.71094922       2.71752969       0.00000000
Si       2.71841004       2.71006956      -0.00245059       0.00000000
Si      -2.71050939      -2.72027199      -0.00144964       0.00000000
Si      -2.71383255      -0.00364896       2.71801291       0.00000000
