10
Lattice="16.28999089631971 0.0 0.0 0.0 16.28999089631971 0.0 0.0 0.0 34.51530692428229" Properties=species:S:1:pos:R:3:initial_magmoms:R:1 pbc="T T T"
Si      -1.52376660      -1.28031485       1.19813052       0.00000000
Si      -0.66134142       2.11791666       0.70504457       0.00000000
Si      -0.46608948      -0.05052995      -2.35501522       0.00000000
Si       2.22835797      -0.86365483       0.65209806       0.00000000
Si      -0.00708615       3.16902891      -1.29256445       0.00000000
Si       0.85035429       2.20935243       2.49897865       0.00000000
Si       2.76172515      -1.60583792      -1.54746014       0.00000000
Si      -0.77382387      -3.48547586       0.61464893       0.00000000
Si       1.72063125      -0.32559475      -3.17389134       0.00000000
Si      -3.72837375      -0.33102909       0.68965073       0.00000000
