10
Lattice="16.28999089631971 0.0 0.0 0.0 16.28999089631971 0.0 0.0 0.0 34.51530692428229" Properties=species:S:1:pos:R:3:initial_magmoms:R:1 pbc="T T T"
Si       1.00440882       2.05706862      -0.77680193       0.00000000
Si      -0.30234240      -1.90523442      -1.50742236       0.00000000
Si      -2.40332886       0.45967122      -0.15732086       0.00000000
Si       1.91420532      -2.17030856      -0.84683353       0.00000000
Si      -0.46535643       2.29275234       1.98131779       0.00000000
Si      -2.27341611       2.75221179       0.39029931       0.00000000
Si      -0.97417458       3.21901803      -1.40529151       0.00000000
Si       2.03163993       1.25985231      -2.80923692       0.00000000
Si       2.90120013      -1.10467377       2.03930353       0.00000000
Si      -0.83901645      -2.97844405       2.05859760       0.00000000
