10
Lattice="16.28999089631971 0.0 0.0 0.0 16.28999089631971 0.0 0.0 0.0 34.51530692428229" Properties=species:S:1:pos:R:3:initial_magmoms:R:1 pbc="T T T"
Si       1.13772618       1.53456687      -1.42136326       0.00000000
Si      -1.22766327       1.35715248       1.53470327       0.00000000
Si      -1.54885320      -1.28223477      -1.29193079       0.00000000
Si       1.47694914      -1.35260757       1.52140797       0.00000000
Si       1.65480336      -0.44590617      -2.64993630       0.00000000
Si      -2.52431469       2.73494439       0.06828167       0.00000000
Si       2.73473262       2.63388123       0.16884207       0.00000000
Si      -2.58541848       0.00917127       2.91001477       0.00000000
Si      -2.73393441      -2.77912287       0.09614244       0.00000000
Si       0.12940776      -2.70194085       2.90894479       0.00000000
