10
Lattice="16.28999089631971 0.0 0.0 0.0 16.28999089631971 0.0 0.0 0.0 34.51530692428229" Properties=species:S:1:pos:R:3:initial_magmoms:R:1 pbc="T T T"
Si      -2.18079117       0.71700924       0.79637212       0.00000000
Si      -0.22379202       0.52679905      -2.42214753       0.00000000
Si       2.16218799       1.37614173      -0.14689723       0.00000000
Si       0.52536879      -2.10596698       1.42430945       0.00000000
Si       1.87655913       3.15487941       1.44677893       0.00000000
Si       0.37382292      -1.45866754       3.73410960       0.00000000
Si      -3.55492760      -1.17926146       1.52350650       0.00000000
Si      -0.96078420      -3.91427101       0.79688985       0.00000000
Si      -1.42990362      -1.02462049      -3.78560646       0.00000000
Si      -1.67216850       2.58384975      -2.87405670       0.00000000
