10
Lattice="16.28999089631971 0.0 0.0 0.0 16.28999089631971 0.0 0.0 0.0 34.51530692428229" Properties=species:S:1:pos:R:3:initial_magmoms:R:1 pbc="T T T"
Si       1.35628911       1.35583299       1.35717714       0.00000000
Si      -1.35751086       1.35755973      -1.35769487       0.00000000
Si       1.35757602      -1.35770634      -1.35797099       0.00000000
Si      -1.35808101      -1.35878148       1.35828163       0.00000000
Si      -0.00105885       2.71419093      -2.71404365       0.00000000
Si       2.71420722       0.00076563      -2.71504459       0.00000000
Si      -2.71572219      -0.00060273      -2.71369849       0.00000000
Si      -2.71485882       2.71497285      -0.00065579       0.00000000
Si       2.71523349      -2.71503801      -0.00020709       0.00000000
Si       2.71507059       2.71521720      -0.00020709       0.00000000
