10
Lattice="16.28999089631971 0.0 0.0 0.0 16.28999089631971 0.0 0.0 0.0 34.51530692428229" Properties=species:S:1:pos:R:3:initial_magmoms:R:1 pbc="T T T"
Si      -1.35645201      -1.35663120       1.35634877       0.00000000
Si       1.35780408      -1.35358497      -1.36093931       0.00000000
Si       1.35865116       1.35801585       1.35645232       0.00000000
Si      -1.35889551       1.35747828      -1.36052513       0.00000000
Si      -2.71379997       0.00078192       2.71338785       0.00000000
Si       2.71336014       2.71454931      -0.00024161       0.00000000
Si       0.00105885      -2.71419093       2.71404365       0.00000000
Si       2.71526607      -2.71342530      -0.00100094       0.00000000
Si       0.00120546       2.71541268       2.71369849       0.00000000
Si      -2.71363707       2.71578735      -0.00106998       0.00000000
