10
Lattice="16.28999089631971 0.0 0.0 0.0 16.28999089631971 0.0 0.0 0.0 34.51530692428229" Properties=species:S:1:pos:R:3:initial_magmoms:R:1 pbc="T T T"
Si       1.35400851      -1.35909099      -1.36131898       0.00000000
Si      -1.36099692       1.35757602      -1.36100834       0.00000000
Si      -1.34524449      -1.37368683       1.37087973       0.00000000
Si       1.35483930       1.35539316       1.38420264       0.00000000
Si       2.71134018       2.71498914       0.00345153       0.00000000
Si       2.71619460      -2.71463076      -0.00051773       0.00000000
Si       2.71278999       0.00029322      -2.71870322       0.00000000
Si      -2.71770957       2.71546155       0.00031064       0.00000000
Si      -0.00228060      -2.71492398      -2.71849612       0.00000000
Si      -0.00213399       2.71467963      -2.71884128       0.00000000
