10
Lattice="16.28999089631971 0.0 0.0 0.0 16.28999089631971 0.0 0.0 0.0 34.51530692428229" Properties=species:S:1:pos:R:3:initial_magmoms:R:1 pbc="T T T"
Si       0.71700435      -1.57815891       1.56437265       0.00000000
Si      -0.53895465       2.09805426       0.89587981       0.00000000
Si      -2.09121246      -0.76988169      -0.78232438       0.00000000
Si       1.93104918       0.27236880      -1.37339935       0.00000000
Si      -1.85575680       0.23522760      -2.98340125       0.00000000
Si       1.44436914       2.51576244       2.14098569       0.00000000
Si      -1.61859069      -3.05067717      -1.11701950       0.00000000
Si      -0.60427755      -3.45189987       1.02617516       0.00000000
Si       0.18640647      -0.76476663       3.65752009       0.00000000
Si      -1.25634996       3.47317461      -0.96166602       0.00000000
