10
Lattice="16.28999089631971 0.0 0.0 0.0 16.28999089631971 0.0 0.0 0.0 34.51530692428229" Properties=species:S:1:pos:R:3:initial_magmoms:R:1 pbc="T T T"
Si      -1.64545290       0.37092330       1.53914194       0.00000000
Si       1.54160415       1.38512241       1.11567340       0.00000000
Si      -0.40128786       1.12515030      -2.04358343       0.00000000
Si      -0.40992156      -2.38694112      -0.33455706       0.00000000
Si       1.83023037      -2.82295926       0.15808019       0.00000000
Si      -3.56163094      -0.39053646       0.45915738       0.00000000
Si      -2.05659621      -0.23633532      -2.98447123       0.00000000
Si      -1.24005996      -2.42610228      -2.61560594       0.00000000
Si       1.47502692       3.50375094      -0.01232197       0.00000000
Si      -1.00284498      -0.46781622       3.66894466       0.00000000
