10
Lattice="16.28999089631971 0.0 0.0 0.0 16.28999089631971 0.0 0.0 0.0 34.51530692428229" Properties=species:S:1:pos:R:3:initial_magmoms:R:1 pbc="T T T"
Si       1.06083738       1.90636983      -0.79426669       0.00000000
Si       0.05934447       0.22962384       2.31318265       0.00000000
Si      -2.30356890      -0.12303837      -0.44510965       0.00000000
Si       1.04982534      -1.24484922      -1.77357004       0.00000000
Si       0.98324811       0.87377931      -2.90156541       0.00000000
Si       3.05343018       1.12746348       0.21710140       0.00000000
Si      -1.56603915      -1.43039232       2.49821931       0.00000000
Si      -2.13723171      -2.25904833      -1.35010150       0.00000000
Si      -1.49462379      -3.09778785       0.77970122       0.00000000
Si      -2.87279037       1.71980046      -1.69528928       0.00000000
