10
Lattice="16.28999089631971 0.0 0.0 0.0 16.28999089631971 0.0 0.0 0.0 34.51530692428229" Properties=species:S:1:pos:R:3:initial_magmoms:R:1 pbc="T T T"
Si       1.79445753       0.39718278      -1.40101161       0.00000000
Si      -1.83985776       1.18288206      -0.84493519       0.00000000
Si       0.81875169       0.53440974       2.16438708       0.00000000
Si      -0.37910088      -2.34670482       0.03917490       0.00000000
Si      -1.45735227      -2.23886502       2.13791382       0.00000000
Si      -3.46524138      -0.47713410      -0.65989852       0.00000000
Si       1.86041574      -3.03601617       0.14589628       0.00000000
Si       2.56321521      -1.81354941      -1.70792189       0.00000000
Si      -3.28663782      -0.87314400       1.64472432       0.00000000
Si       1.15422795       2.08072170      -2.94101643       0.00000000
