10
Lattice="16.28999089631971 0.0 0.0 0.0 16.28999089631971 0.0 0.0 0.0 34.51530692428229" Properties=species:S:1:pos:R:3:initial_magmoms:R:1 pbc="T T T"
Si      -1.43017078      -1.68266156       0.67411884       0.00000000
Si      -0.25878294       0.24771389      -2.38766672       0.00000000
Si      -0.77185278       1.93440981       1.27095786       0.00000000
Si       2.20460715      -0.94928576       0.50847979       0.00000000
Si      -0.97907787      -3.34101614      -0.97602439       0.00000000
Si       0.93584421       3.47603025       0.62693639       0.00000000
Si      -0.87819390      -1.94696681       3.01670854       0.00000000
Si       3.72837375       0.33102909      -0.68965073       0.00000000
Si       1.36576989      -1.10754311      -3.46920447       0.00000000
Si       3.06703233       2.44894575       0.01539384       0.00000000
