10
Lattice="16.28999089631971 0.0 0.0 0.0 16.28999089631971 0.0 0.0 0.0 34.51530692428229" Properties=species:S:1:pos:R:3:initial_magmoms:R:1 pbc="T T T"
Si       1.14544764       1.89907191      -0.77500713       0.00000000
Si       0.45208008      -1.71807372      -1.58701470       0.00000000
Si      -2.25791522       0.54604080       0.53585044       0.00000000
Si       1.12718655      -0.26689536       2.31035239       0.00000000
Si      -0.71411939       3.34207269      -1.05068105       0.00000000
Si      -2.70680246       2.12711562      -1.08709471       0.00000000
Si       1.25709930       2.02564521       2.85797256       0.00000000
Si       2.55634083       2.49245145       1.06238174       0.00000000
Si      -0.81036071      -3.54076345      -0.90623441       0.00000000
Si       2.74224231      -2.20051836      -1.31127176       0.00000000
