10
Lattice="16.28999089631971 0.0 0.0 0.0 16.28999089631971 0.0 0.0 0.0 34.51530692428229" Properties=species:S:1:pos:R:3:initial_magmoms:R:1 pbc="T T T"
Si      -1.35615879      -1.35683438      -1.35693553       0.00000000
Si      -1.35299853       1.35794417       1.36100834       0.00000000
Si       1.35765747      -1.35422134       1.36124995       0.00000000
Si       1.35863487       1.35812336      -1.35669393       0.00000000
Si      -2.71339272       0.00008471      -2.71442331       0.00000000
Si      -2.71406061       2.71508036       0.00006903       0.00000000
Si       0.00140094      -2.71479107      -2.71487201       0.00000000
Si       0.00174303       2.71548761      -2.71456138       0.00000000
Si       2.71625976       0.00038770      -2.71497556       0.00000000
Si       2.71570590       2.71617179       0.00041418       0.00000000
