10
Lattice="16.28999089631971 0.0 0.0 0.0 16.28999089631971 0.0 0.0 0.0 34.51530692428229" Properties=species:S:1:pos:R:3:initial_magmoms:R:1 pbc="T T T"
Si       0.83088774       1.53414333       1.51335899       0.00000000
Si       1.16556579       0.00734679      -2.01120806       0.00000000
Si      -1.96991712       1.12190859      -0.71971358       0.00000000
Si       0.46882620      -2.02771404       1.19719861       0.00000000
Si       0.37010880       3.60802323       0.51938663       0.00000000
Si      -0.57114369      -3.69547514      -0.02989027       0.00000000
Si       3.50208936      -0.36564534      -1.42600070       0.00000000
Si       0.18174753      -1.63284444      -3.42785511       0.00000000
Si      -0.43618104       1.50540777       3.48994818       0.00000000
Si      -1.38505725       3.42881694      -1.02058368       0.00000000
