10
Lattice="16.28999089631971 0.0 0.0 0.0 16.28999089631971 0.0 0.0 0.0 34.51530692428229" Properties=species:S:1:pos:R:3:initial_magmoms:R:1 pbc="T T T"
Si      -1.26244079      -1.82268973       0.68078029       0.00000000
Si       2.29016223      -0.48244464       0.27574294       0.00000000
Si      -0.45208008       1.71807372       1.58701470       0.00000000
Si      -0.28470033       0.26591796      -2.37403317       0.00000000
Si      -0.39104145      -3.61545866      -0.62828248       0.00000000
Si       0.69336756       3.61714563       0.81200756       0.00000000
Si       1.42299666       1.80753840      -3.01805464       0.00000000
Si       3.48622290       1.48936212      -0.24895905       0.00000000
Si       2.01023487       3.11231853      -1.08761244       0.00000000
Si      -2.71727693       0.70850097      -2.66175293       0.00000000
