10
Lattice="16.28999089631971 0.0 0.0 0.0 16.28999089631971 0.0 0.0 0.0 34.51530692428229" Properties=species:S:1:pos:R:3:initial_magmoms:R:1 pbc="T T T"
Si       1.35288450      -1.35482301      -1.35866130       0.00000000
Si       1.35641943       1.35827649       1.35655587       0.00000000
Si      -1.35832536      -1.35666378       1.35676296       0.00000000
Si      -1.35684297       1.35716877      -1.36349345       0.00000000
Si       0.00998577      -2.71037907      -2.70520427       0.00000000
Si       2.71349046       2.71412577       0.00003452       0.00000000
Si       2.71388142      -2.71440270      -0.00031064       0.00000000
Si       2.71409319       0.00076563       2.71442331       0.00000000
Si      -0.00143352      -2.71402803       2.71463041       0.00000000
Si      -0.00109143       2.71564074       2.71421622       0.00000000
