10
Lattice="16.28999089631971 0.0 0.0 0.0 16.28999089631971 0.0 0.0 0.0 34.51530692428229" Properties=species:S:1:pos:R:3:initial_magmoms:R:1 pbc="T T T"
Si      -0.85196700      -1.78782750      -1.37850761       0.00000000
Si       1.80094095       0.84799224      -1.39338372       0.00000000
Si       0.52479864      -0.99865845       2.23241678       0.00000000
Si      -1.98610938       1.81569969       0.00793853       0.00000000
Si      -2.19923145      -0.50474565      -2.89980513       0.00000000
Si       0.52755165       2.21460921      -2.89966707       0.00000000
Si       3.11784084       2.27657637       0.04297158       0.00000000
Si      -0.87333948       3.50134002      -1.41889055       0.00000000
Si       1.78150698      -3.11861787       1.53876227       0.00000000
Si      -2.47353876      -3.03963744      -0.15217807       0.00000000
