10
Lattice="16.28999089631971 0.0 0.0 0.0 16.28999089631971 0.0 0.0 0.0 34.51530692428229" Properties=species:S:1:pos:R:3:initial_magmoms:R:1 pbc="T T T"
Si      -1.66886163      -1.06759773      -1.42499976       0.00000000
Si       1.11276990       1.68564033      -1.42682907       0.00000000
Si      -1.37073834       1.62057807       1.55819440       0.00000000
Si       1.98610938      -1.81569969      -0.00793853       0.00000000
Si       0.71263863       2.61021186       2.19465702       0.00000000
Si      -1.80802710      -0.61903629       3.10461908       0.00000000
Si      -0.21312207      -2.32044534      -2.90774366       0.00000000
Si       2.09688138       0.91784376       3.06485742       0.00000000
Si       2.51366103       0.39890952      -2.90760560       0.00000000
Si       2.11072788       3.24526122       0.11517764       0.00000000
