10
Lattice="16.28999089631971 0.0 0.0 0.0 16.28999089631971 0.0 0.0 0.0 34.51530692428229" Properties=species:S:1:pos:R:3:initial_magmoms:R:1 pbc="T T T"
Si      -0.51707718       1.98047304       1.22857304       0.00000000
Si       2.01148920      -0.64668042      -1.17410785       0.00000000
Si      -1.73389131      -1.07201232      -1.40011421       0.00000000
Si       2.23989129      -0.71537535       1.52545079       0.00000000
Si      -1.65480336       0.44590617       2.64993630       0.00000000
Si       1.94497713       1.40221062      -2.53304528       0.00000000
Si      -3.20365656      -0.83632860       1.35800551       0.00000000
Si       1.12187601      -2.42258364       2.80144132       0.00000000
Si      -0.70666020      -1.86922863      -3.43254919       0.00000000
Si      -1.79613540       3.57081687      -0.39627046       0.00000000
