10
Lattice="16.28999089631971 0.0 0.0 0.0 16.28999089631971 0.0 0.0 0.0 34.51530692428229" Properties=species:S:1:pos:R:3:initial_magmoms:R:1 pbc="T T T"
Si       1.35399222      -1.35809730      -1.36173317       0.00000000
Si      -1.36218609       1.35553977      -1.36080125       0.00000000
Si       1.34543997       1.35264015       1.38047499       0.00000000
Si      -1.37495745      -1.35013149       1.39258987       0.00000000
Si       2.70995553      -2.71601541      -0.00186383       0.00000000
Si       2.71267596       2.71687878      -0.00200189       0.00000000
Si       2.71147050      -0.00040725      -2.71822000       0.00000000
Si      -2.71619460       2.71463076       0.00051773       0.00000000
Si      -0.00340461       2.71492398      -2.71818549       0.00000000
Si      -2.71700910      -2.71611315      -0.00241607       0.00000000
