10
Lattice="16.28999089631971 0.0 0.0 0.0 16.28999089631971 0.0 0.0 0.0 34.51530692428229" Properties=species:S:1:pos:R:3:initial_magmoms:R:1 pbc="T T T"
Si       2.00744928       0.41218587       1.17227854       0.00000000
Si      -1.93104918      -0.27236880       1.37339935       0.00000000
Si      -0.14113656       1.77486066      -1.60185629       0.00000000
Si       0.47754135      -2.05675911      -1.17131211       0.00000000
Si      -1.21404483      -1.85052771       2.93777199       0.00000000
Si      -2.56754835       2.17207602      -1.60327142       0.00000000
Si       0.18619470       0.62493327      -3.67905765       0.00000000
Si      -2.47000383       1.82568546       2.26927915       0.00000000
Si      -1.60583562      -3.04639290      -1.80777473       0.00000000
Si       3.47960916       1.75633893      -0.15794213       0.00000000
