10
Lattice="16.28999089631971 0.0 0.0 0.0 16.28999089631971 0.0 0.0 0.0 34.51530692428229" Properties=species:S:1:pos:R:3:initial_magmoms:R:1 pbc="T T T"
Si      -1.35904212       1.35658233      -1.36470148       0.00000000
Si       1.35933534      -1.35933534      -1.36456342       0.00000000
Si       1.35145098       1.36347300       1.36956814       0.00000000
Si      -1.35650088      -1.35959598       1.38075111       0.00000000
Si      -2.71134018      -2.71498914      -0.00345153       0.00000000
Si       2.71753038      -2.71274112      -0.00597115       0.00000000
Si      -2.71305063       2.71769328      -0.00731725       0.00000000
Si       2.71500543       2.71795027      -0.00383120       0.00000000
Si      -2.71347417      -0.00030951      -2.72229281       0.00000000
Si       0.00144981      -2.71469592      -2.72215475       0.00000000
