10
Lattice="16.28999089631971 0.0 0.0 0.0 16.28999089631971 0.0 0.0 0.0 34.51530692428229" Properties=species:S:1:pos:R:3:initial_magmoms:R:1 pbc="T T T"
Si       0.01601307       2.25326538       0.43893140       0.00000000
Si      -0.16200405      -1.27268883       1.97120480       0.00000000
Si       2.26924587      -0.41992362      -0.47389543       0.00000000
Si      -1.98332379      -0.41770818      -1.24510588       0.00000000
Si      -1.44436914      -2.51576244      -2.14098569       0.00000000
Si      -3.59712522      -0.65896308       0.49374174       0.00000000
Si       2.23749666       3.03753849       0.42377918       0.00000000
Si       1.98896013      -1.44878373       2.90443019       0.00000000
Si      -1.25796267      -3.28052907       1.51653440       0.00000000
Si      -1.02508083       3.53350855      -1.18749980       0.00000000
