10
Lattice="16.28999089631971 0.0 0.0 0.0 16.28999089631971 0.0 0.0 0.0 34.51530692428229" Properties=species:S:1:pos:R:3:initial_magmoms:R:1 pbc="T T T"
Si       1.35671265       1.35247725      -1.38365040       0.00000000
Si      -1.35511623      -1.36567215      -1.38240785       0.00000000
Si       1.55622672      -1.24405101       1.37750667       0.00000000
Si      -1.43738073       1.34949618       1.49765452       0.00000000
Si      -2.71077003       2.71611315      -0.00862883       0.00000000
Si       2.71826899       2.70896184       0.00082837       0.00000000
Si      -2.71671588      -2.72099200       0.00797304       0.00000000
Si       2.72144554      -2.72946932      -0.02205529       0.00000000
Si       0.00161271       2.71160082      -2.74593581       0.00000000
Si      -2.71502172      -0.00438201      -2.74528002       0.00000000
