10
Lattice="16.28999089631971 0.0 0.0 0.0 16.28999089631971 0.0 0.0 0.0 34.51530692428229" Properties=species:S:1:pos:R:3:initial_magmoms:R:1 pbc="T T T"
Si      -1.35519768       1.35485559       1.35817809       0.00000000
Si       1.34110683       1.35389448      -1.37942227       0.00000000
Si       1.35944020      -1.35803214       1.35772939       0.00000000
Si      -1.34832330      -1.35048987      -1.39221710       0.00000000
Si      -2.71226871      -0.00099369       2.71469944       0.00000000
Si      -2.71366965       2.71402803      -0.00314089       0.00000000
Si       0.00242721       2.71396287       2.71459589       0.00000000
Si      -2.71580364      -2.71409319      -0.00051773       0.00000000
Si       0.00252495      -2.71564074       2.71494104       0.00000000
Si       2.70358518      -0.00503361      -2.72810864       0.00000000
