10
Lattice="16.28999089631971 0.0 0.0 0.0 16.28999089631971 0.0 0.0 0.0 34.51530692428229" Properties=species:S:1:pos:R:3:initial_magmoms:R:1 pbc="T T T"
Si       1.38771252       1.65806136       0.92673651       0.00000000
Si      -1.90742868       1.12348872      -0.82294892       0.00000000
Si       0.14183703      -1.64048445       1.72397151       0.00000000
Si       0.95897601      -1.07308746      -1.96154050       0.00000000
Si      -0.84198123      -3.28067568       0.30732446       0.00000000
Si       1.09217934      -3.27650544      -1.09807059       0.00000000
Si       1.06355781       2.46430233      -2.47985716       0.00000000
Si      -1.18949580       1.99249506      -2.83170639       0.00000000
Si      -2.10191499       2.94184368       0.62455483       0.00000000
Si       1.58182416       3.50129115      -0.44631768       0.00000000
