10
Lattice="16.28999089631971 0.0 0.0 0.0 16.28999089631971 0.0 0.0 0.0 34.51530692428229" Properties=species:S:1:pos:R:3:initial_magmoms:R:1 pbc="T T T"
Si       0.19411164       1.84322979      -1.37305419       0.00000000
Si       2.27636201      -0.40984011      -0.06592427       0.00000000
Si      -1.38771252      -1.65806136      -0.92673651       0.00000000
Si      -0.04264722       0.72622449       2.24822480       0.00000000
Si       2.73053536       1.77370407       1.02227493       0.00000000
Si      -1.76583600       2.86914141      -0.67090891       0.00000000
Si      -0.32415471       0.80624097      -3.40659367       0.00000000
Si       2.57443806      -1.84564071       1.66791862       0.00000000
Si      -1.24587549      -3.29854581       0.79723500       0.00000000
Si      -3.48962751       1.28378232      -0.30218168       0.00000000
