10
Lattice="16.28999089631971 0.0 0.0 0.0 16.28999089631971 0.0 0.0 0.0 34.51530692428229" Properties=species:S:1:pos:R:3:initial_magmoms:R:1 pbc="T T T"
Si      -1.99868526      -0.42409386       1.07960489       0.00000000
Si       1.10623761       2.03958945       0.18079128       0.00000000
Si       0.04264722      -0.72622449      -2.24822480       0.00000000
Si       1.78553061      -1.17367821       1.10380013       0.00000000
Si       2.77318258       1.04747958      -1.22594987       0.00000000
Si       2.31900923      -1.13606460      -2.31414908       0.00000000
Si      -1.53790632      -2.49797376       2.07357725       0.00000000
Si       1.68189363       2.19134709       2.44037162       0.00000000
Si       2.61708528      -2.57186520      -0.58030618       0.00000000
Si       0.23675886       1.11700530      -3.62127900       0.00000000
