10
Lattice="16.28999089631971 0.0 0.0 0.0 16.28999089631971 0.0 0.0 0.0 34.51530692428229" Properties=species:S:1:pos:R:3:initial_magmoms:R:1 pbc="T T T"
Si      -2.14382916      -0.29048328      -0.81031631       0.00000000
Si       1.48317192      -1.59518196      -0.92849679       0.00000000
Si       0.24065217       2.34080784       0.30083558       0.00000000
Si      -0.26378397      -0.82730394       2.49994508       0.00000000
Si       3.47585499      -0.38022489      -0.89208312       0.00000000
Si      -1.09944468       2.57719203       2.34044976       0.00000000
Si       1.86688287      -1.81819206       2.70113491       0.00000000
Si       1.93205916      -3.17625678       0.69444836       0.00000000
Si      -2.51603937       0.98266167      -2.74075851       0.00000000
Si       0.14371038       3.38485023      -1.83845885       0.00000000
