10
Lattice="16.28999089631971 0.0 0.0 0.0 16.28999089631971 0.0 0.0 0.0 34.51530692428229" Properties=species:S:1:pos:R:3:initial_magmoms:R:1 pbc="T T T"
Si       0.98520291       1.57123566      -1.42713971       0.00000000
Si      -2.33823402       0.24694011      -0.45736259       0.00000000
Si       0.48651714       1.09740843       2.09884247       0.00000000
Si       0.92812275      -2.03927994      -1.06283044       0.00000000
Si       1.81675758       0.17304867      -3.11124602       0.00000000
Si       2.29696235       3.01314501      -0.05322263       0.00000000
Si       0.33296760      -1.65284856      -3.39672228       0.00000000
Si      -0.80032770       2.74491387      -2.53093984       0.00000000
Si       0.93540438      -0.48366639       3.72178763       0.00000000
Si      -0.37897056      -3.86641684      -0.38422461       0.00000000
