10
Lattice="16.28999089631971 0.0 0.0 0.0 16.28999089631971 0.0 0.0 0.0 34.51530692428229" Properties=species:S:1:pos:R:3:initial_magmoms:R:1 pbc="T T T"
Si       1.72941223       0.90631044      -1.36417482       0.00000000
Si      -1.42091154      -1.02332151      -1.66052341       0.00000000
Si       1.27425267      -1.40828679       1.62495395       0.00000000
Si      -1.41711597       1.30339548       1.60979136       0.00000000
Si       3.39202502      -0.88879869      -0.99352021       0.00000000
Si      -2.70353727      -2.58380577       0.11856015       0.00000000
Si       2.73160072       2.60781723       0.06893746       0.00000000
Si       2.63673102      -2.76721488       0.27626757       0.00000000
Si      -2.91823947       2.53936665       0.19507027       0.00000000
Si       2.65254698      -0.04847904       3.00140790       0.00000000
