10
Lattice="16.28999089631971 0.0 0.0 0.0 16.28999089631971 0.0 0.0 0.0 34.51530692428229" Properties=species:S:1:pos:R:3:initial_magmoms:R:1 pbc="T T T"
Si      -1.36259334      -1.34522820      -1.37926695       0.00000000
Si       1.34751274       1.37572308      -1.37885277       0.00000000
Si      -1.46064285       1.27211868       1.40063194       0.00000000
Si       1.36279438      -1.37433843       1.51204741       0.00000000
Si      -2.71692765      -2.69693982      -0.00248510       0.00000000
Si       2.71211137      -2.70409113       0.00697210       0.00000000
Si      -2.71586880       2.71376739      -0.02847514       0.00000000
Si       2.69965766       2.73605211      -0.00427990       0.00000000
Si      -0.00454491      -2.70145215      -2.73979208       0.00000000
Si       2.70979493       0.01255959      -2.73848050       0.00000000
