10
Lattice="16.28999089631971 0.0 0.0 0.0 16.28999089631971 0.0 0.0 0.0 34.51530692428229" Properties=species:S:1:pos:R:3:initial_magmoms:R:1 pbc="T T T"
Si       0.09034434      -1.07755092       2.14119278       0.00000000
Si       0.84435957      -2.00632527      -1.24048082       0.00000000
Si      -2.14886277       0.77805927      -1.16033624       0.00000000
Si       1.66656474       1.95667335       0.09150013       0.00000000
Si      -2.16270927      -1.54935819       1.78934354       0.00000000
Si      -0.48964482       1.90076607      -2.78000243       0.00000000
Si       2.33379241      -0.74569104      -2.66858696       0.00000000
Si      -3.54695202       0.14300991       0.91914314       0.00000000
Si       1.50833997      -3.00324069       1.51266869       0.00000000
Si       3.50498965       0.82883520      -1.13986865       0.00000000
