10
Lattice="16.28999089631971 0.0 0.0 0.0 16.28999089631971 0.0 0.0 0.0 34.51530692428229" Properties=species:S:1:pos:R:3:initial_magmoms:R:1 pbc="T T T"
Si       1.35758705       1.35609363       1.35659038       0.00000000
Si       1.35751048      -1.35756136      -1.35697005       0.00000000
Si      -1.35699226      -1.35918384       1.35617620       0.00000000
Si      -1.35777418       1.35801585      -1.35728069       0.00000000
Si      -0.00111251      -2.71419812       2.71411268       0.00000000
Si       2.71474930      -2.71427534       0.00003452       0.00000000
Si      -0.00065252      -2.71457561      -2.71463041       0.00000000
Si       2.71435834      -0.00156384       2.71487201       0.00000000
Si      -2.71510585      -0.00001629      -2.71438880       0.00000000
Si      -2.71469860      -2.71491214       0.00006903       0.00000000
