10
Lattice="16.28999089631971 0.0 0.0 0.0 16.28999089631971 0.0 0.0 0.0 34.51530692428229" Properties=species:S:1:pos:R:3:initial_magmoms:R:1 pbc="T T T"
Si      -1.35824391      -1.35624024      -1.35717714       0.00000000
Si       1.35715248       1.35922404      -1.35741875       0.00000000
Si       1.35935163      -1.35835794       1.35779842       0.00000000
Si      -1.35954711       1.36214986       1.36100834       0.00000000
Si       2.71298547      -2.71358820      -0.00120804       0.00000000
Si      -0.00096111      -2.71319724      -2.71445783       0.00000000
Si       2.71428867       0.00208512      -2.71466492       0.00000000
Si       2.71637379      -0.00267156       2.71280109       0.00000000
Si       2.71485882       2.71495234      -0.00131158       0.00000000
Si      -2.71521720      -2.71513575       0.00027612       0.00000000
