10
Lattice="16.28999089631971 0.0 0.0 0.0 16.28999089631971 0.0 0.0 0.0 34.51530692428229" Properties=species:S:1:pos:R:3:initial_magmoms:R:1 pbc="T T T"
Si       2.08383798       1.11685869       0.11055259       0.00000000
Si       0.40275885      -2.35576206       0.22044939       0.00000000
Si      -0.69190635       0.96888033       2.09711671       0.00000000
Si      -1.87442744       0.25927164      -1.87207678       0.00000000
Si       1.26730173       3.30662565      -0.25831270       0.00000000
Si      -3.39700487      -1.35242838      -0.72523603       0.00000000
Si       2.07530202      -2.51918334       1.89392498       0.00000000
Si      -0.39383030      -0.46692027       3.83095960       0.00000000
Si      -2.96826836       1.37872044       2.16304098       0.00000000
Si      -1.33172609      -3.37953969       1.49820676       0.00000000
