10
Lattice="16.28999089631971 0.0 0.0 0.0 16.28999089631971 0.0 0.0 0.0 34.51530692428229" Properties=species:S:1:pos:R:3:initial_magmoms:R:1 pbc="T T T"
Si       0.58661919      -2.06303076      -0.87889827       0.00000000
Si       1.54518795       1.59797474      -0.69596704       0.00000000
Si       0.27491004      -0.09615987       2.34082942       0.00000000
Si      -1.02141558      -0.56690829      -2.19372510       0.00000000
Si      -1.11042414      -1.99589967       2.31953347       0.00000000
Si      -0.88554069      -3.40718382       0.45132241       0.00000000
Si      -1.14217335       1.46156244       3.21720807       0.00000000
Si       1.25046927       3.45249350       0.71156797       0.00000000
Si       0.63952911       2.86933267      -2.55610151       0.00000000
Si       2.93860197      -2.53519641      -0.83886049       0.00000000
