10
Lattice="16.28999089631971 0.0 0.0 0.0 16.28999089631971 0.0 0.0 0.0 34.51530692428229" Properties=species:S:1:pos:R:3:initial_magmoms:R:1 pbc="T T T"
Si      -1.12668156      -1.91632302       0.69938406       0.00000000
Si       2.31739978      -0.42660252       0.41145720       0.00000000
Si      -0.76395213       1.80591496       1.39918229       0.00000000
Si      -0.24184134      -0.43049583      -2.37720858       0.00000000
Si       0.75841353      -2.52928314      -2.39370690       0.00000000
Si       2.76849269      -2.08495710      -1.23868603       0.00000000
Si       0.54314118       3.63305186       0.72057647       0.00000000
Si      -3.45419676      -1.48986711       0.55393647       0.00000000
Si      -0.72371583      -2.24329590       3.00128019       0.00000000
Si      -0.73526544      -3.62906991      -0.98927828       0.00000000
