10
Lattice="16.28999089631971 0.0 0.0 0.0 16.28999089631971 0.0 0.0 0.0 34.51530692428229" Properties=species:S:1:pos:R:3:initial_magmoms:R:1 pbc="T T T"
Si       2.24015193      -0.43601814       0.49263725       0.00000000
Si      -0.83013840      -0.03916116      -2.28104888       0.00000000
Si      -1.01077821      -1.89434781       1.13331074       0.00000000
Si       0.40992156       2.38694112       0.33455706       0.00000000
Si      -1.23553134       2.75786442       1.87369900       0.00000000
Si      -3.60588272      -0.18713952      -0.29448476       0.00000000
Si       3.43342701       0.58199283      -1.28631718       0.00000000
Si      -1.64667465       2.15060580      -2.64991417       0.00000000
Si      -0.83867436      -3.67520319      -0.49767649       0.00000000
Si      -3.15170938       1.99640466       0.79371444       0.00000000
