10
Lattice="16.28999089631971 0.0 0.0 0.0 16.28999089631971 0.0 0.0 0.0 34.51530692428229" Properties=species:S:1:pos:R:3:initial_magmoms:R:1 pbc="T T T"
Si       1.29924153       0.46680624      -1.79559082       0.00000000
Si      -1.78448479       1.49354865      -0.18358702       0.00000000
Si      -0.12991275      -2.29254057      -0.54762017       0.00000000
Si       1.80805968      -0.45945945       1.59101848       0.00000000
Si      -1.30748427      -2.69472438       1.55505351       0.00000000
Si      -1.20084993       2.70638802       1.79689692       0.00000000
Si      -2.90688208      -0.90762993       1.76286895       0.00000000
Si       3.27782493      -0.69514317      -1.16710124       0.00000000
Si       2.27341611      -2.75221179      -0.39029931       0.00000000
Si      -3.58019081      -0.12153969      -0.31543557       0.00000000
