10
Lattice="16.28999089631971 0.0 0.0 0.0 16.28999089631971 0.0 0.0 0.0 34.51530692428229" Properties=species:S:1:pos:R:3:initial_magmoms:R:1 pbc="T T T"
Si       1.34495127       1.35953082       1.37820733       0.00000000
Si      -1.36595885      -1.35492075       1.37720639       0.00000000
Si      -1.28690511       1.30137552      -1.55526405       0.00000000
Si       1.40696730      -1.34390871      -1.46338770       0.00000000
Si      -0.62648082      -2.19524040      -2.61772173       0.00000000
Si       0.55089522       1.98734742      -3.03883774       0.00000000
Si      -2.28909361      -0.40013127      -2.98837633       0.00000000
Si       2.50219287       0.27474714      -2.85197176       0.00000000
Si      -2.71843355       2.70625770      -0.01024760       0.00000000
Si       2.70361872      -2.72170062       0.00303390       0.00000000
