10
Lattice="16.28999089631971 0.0 0.0 0.0 16.28999089631971 0.0 0.0 0.0 34.51530692428229" Properties=species:S:1:pos:R:3:initial_magmoms:R:1 pbc="T T T"
Si      -1.35653313      -1.35622395       1.35731520       0.00000000
Si      -1.35382899       1.35791811      -1.36169865       0.00000000
Si       1.35899263       1.35907470       1.35738423       0.00000000
Si       1.36044081      -1.35648459      -1.36024901       0.00000000
Si       0.00101050      -2.71347417       2.71490653       0.00000000
Si      -2.71392996       0.00144981       2.71497556       0.00000000
Si      -2.71415802      -2.71533123       0.00089740       0.00000000
Si       2.71558310      -2.71430496       0.00162222       0.00000000
Si      -2.71392996       2.71671588       0.00031064       0.00000000
Si       2.71644647       0.00127062       2.71466492       0.00000000
