10
Lattice="16.28999089631971 0.0 0.0 0.0 16.28999089631971 0.0 0.0 0.0 34.51530692428229" Properties=species:S:1:pos:R:3:initial_magmoms:R:1 pbc="T T T"
Si      -1.35420793       1.35070164      -1.36166413       0.00000000
Si       1.36228218      -1.36316349      -1.35962773       0.00000000
Si       1.35214492       1.36032903       1.37457287       0.00000000
Si      -1.34751274      -1.37572308       1.37885277       0.00000000
Si       2.63564379      -0.10212201       2.69512925       0.00000000
Si      -2.70784177       2.70593190      -0.00265768       0.00000000
Si       0.00426164       2.70883152      -2.71759872       0.00000000
Si       2.71919520       2.70896184       0.00124255       0.00000000
Si      -2.71061107      -0.00627165      -2.71790936       0.00000000
Si      -2.71010608      -2.72095128      -0.00041418       0.00000000
