10
Lattice="16.28999089631971 0.0 0.0 0.0 16.28999089631971 0.0 0.0 0.0 34.51530692428229" Properties=species:S:1:pos:R:3:initial_magmoms:R:1 pbc="T T T"
Si       0.88793532       1.73346777       1.20106432       0.00000000
Si       1.45601649      -1.27806453      -1.32331761       0.00000000
Si      -1.28349887       1.46245104      -1.32055638       0.00000000
Si      -1.44916492      -1.07341326       1.72448924       0.00000000
Si       1.20725190       0.71482149       3.27816214       0.00000000
Si      -2.62036216      -2.64793950       0.19577093       0.00000000
Si       0.08407269      -2.62156599      -2.69443894       0.00000000
Si      -2.63564379       0.10212201      -2.69512925       0.00000000
Si       2.74585869      -2.58711264       0.31654006       0.00000000
Si       0.12641040      -1.49071419       3.54793393       0.00000000
