10
Lattice="16.28999089631971 0.0 0.0 0.0 16.28999089631971 0.0 0.0 0.0 34.51530692428229" Properties=species:S:1:pos:R:3:initial_magmoms:R:1 pbc="T T T"
Si      -0.64260792       0.83873952      -2.12980272       0.00000000
Si      -2.23467849      -0.70196868       0.49387980       0.00000000
Si      -0.07141536       1.66739553       1.71851809       0.00000000
Si       1.98729855      -1.25592642       0.47223869       0.00000000
Si      -0.80894511       2.97474948      -1.22481087       0.00000000
Si      -1.92851283       2.72013678       0.82926523       0.00000000
Si       1.49462379       3.09778785      -0.77970122       0.00000000
Si      -2.05244063      -1.40274819       2.68235858       0.00000000
Si       1.12399371      -3.35057607       1.05841248       0.00000000
Si       1.00284498       0.46781622      -3.66894466       0.00000000
