10
Lattice="16.28999089631971 0.0 0.0 0.0 16.28999089631971 0.0 0.0 0.0 34.51530692428229" Properties=species:S:1:pos:R:3:initial_magmoms:R:1 pbc="T T T"
Si       1.85709747      -1.05274125       0.88925286       0.00000000
Si      -1.72156208      -1.49898951      -0.37273101       0.00000000
Si      -0.66885600       1.75172886       1.36338990       0.00000000
Si       1.11956772       0.25461270      -2.05407609       0.00000000
Si       1.92851283      -2.72013678      -0.82926523       0.00000000
Si      -0.30616566      -3.42210546      -0.33538542       0.00000000
Si      -3.45607241      -0.35780985       0.90671762       0.00000000
Si       3.48248109       0.60727491       0.70421620       0.00000000
Si       0.65123022       3.49150086       0.68847721       0.00000000
Si      -2.94186227       1.93911273       0.93571049       0.00000000
