10
Lattice="16.28999089631971 0.0 0.0 0.0 16.28999089631971 0.0 0.0 0.0 34.51530692428229" Properties=species:S:1:pos:R:3:initial_magmoms:R:1 pbc="T T T"
Si       1.82928555      -1.36572102       0.49318950       0.00000000
Si      -1.98000715      -1.14750018       0.48066043       0.00000000
Si      -0.17860356       0.39600990      -2.30462285       0.00000000
Si      -0.14797836       2.21975685       1.30416160       0.00000000
Si       1.44678006       2.05602606      -2.48965951       0.00000000
Si      -2.36793883       2.69606016       0.47679472       0.00000000
Si       2.90753694      -1.47356082      -1.60554943       0.00000000
Si      -2.15962883      -2.67413382      -1.34078236       0.00000000
Si      -3.44424618       0.64483965       1.24845386       0.00000000
Si       1.11083139      -3.52375506       0.77228042       0.00000000
