10
Lattice="16.28999089631971 0.0 0.0 0.0 16.28999089631971 0.0 0.0 0.0 34.51530692428229" Properties=species:S:1:pos:R:3:initial_magmoms:R:1 pbc="T T T"
Si       1.28349887      -1.46245104       1.32055638       0.00000000
Si      -1.35214492      -1.36032903      -1.37457287       0.00000000
Si       1.36705028       1.34863281      -1.37333031       0.00000000
Si      -1.40970143       1.41292944       1.47680726       0.00000000
Si       2.17143419       0.27101673       2.52162070       0.00000000
Si      -2.70296453       2.70128925      -0.02222787       0.00000000
Si       2.71522697       2.70441693      -0.00093191       0.00000000
Si      -2.69965766      -2.73605211       0.00427990       0.00000000
Si       0.00922991       2.70614367      -2.73485639       0.00000000
Si      -2.70635285      -0.00962739      -2.73623700       0.00000000
