10
Lattice="16.28999089631971 0.0 0.0 0.0 16.28999089631971 0.0 0.0 0.0 34.51530692428229" Properties=species:S:1:pos:R:3:initial_magmoms:R:1 pbc="T T T"
Si       1.20611160       1.55141955       1.36345893       0.00000000
Si      -1.18048906       1.47837519      -1.48850796       0.00000000
Si      -1.78862245      -0.81042750       1.44691699       0.00000000
Si       1.51910766      -1.22862438      -1.47780821       0.00000000
Si      -2.60582075      -2.52011187      -0.00006903       0.00000000
Si      -0.24226488       3.60847025       0.91154977       0.00000000
Si      -2.34570787       2.96379350      -0.08894600       0.00000000
Si      -2.54471907       0.13085757      -2.85528036       0.00000000
Si       2.80106550      -2.62008360      -0.04700987       0.00000000
Si       0.17093097      -2.58440850      -2.85020661       0.00000000
