10
Lattice="10.86 0.0 0.0 0.0 10.86 0.0 0.0 0.0 10.86" Properties=species:S:1:pos:R:3:initial_magmoms:R:1 pbc="T T T"
Si      -1.36794732       1.15724160       1.33655106       0.00000000
Si       1.34705268       1.15724160      -1.37844894       0.00000000
Si       1.34705268      -1.55775840       1.33655106       0.00000000
Si      -0.01044732       2.51474160       2.69405106       0.00000000
Si       2.70455268       2.51474160      -0.02094894       0.00000000
Si      -2.72544732       2.51474160      -0.02094894       0.00000000
Si      -0.01044732       2.51474160      -2.73594894       0.00000000
Si       2.70455268      -0.20025840       2.69405106       0.00000000
Si      -2.72544732      -0.20025840       2.69405106       0.00000000
Si       2.70455268      -0.20025840      -2.73594894       0.00000000
