10
Lattice="16.28999089631971 0.0 0.0 0.0 16.28999089631971 0.0 0.0 0.0 34.26581377546328" Properties=species:S:1:pos:R:3:initial_magmoms:R:1 pbc="T T T"
Si       1.32263397       1.51849583      -1.23596859       0.00000000
Si       1.47040056      -0.24579981       1.88821872       0.00000000
Si      -1.77943815       1.53696869       0.58817302       0.00000000
Si      -0.85786398      -1.99099638      -1.16202293       0.00000000
Si      -1.50175881      -1.15271298       2.79485840       0.00000000
Si       2.59879257      -2.22971004      -0.10745765       0.00000000
Si      -2.81510585       1.37000726      -1.51516660       0.00000000
Si       1.47372372       3.33046511       0.29674211       0.00000000
Si      -1.55383794       0.38182131      -3.29219270       0.00000000
Si      -3.09185829      -1.93269447      -0.38549062       0.00000000
