10
Lattice="16.28999089631971 0.0 0.0 0.0 16.28999089631971 0.0 0.0 0.0 34.26581377546328" Properties=species:S:1:pos:R:3:initial_magmoms:R:1 pbc="T T T"
Si       1.35671265       1.35622395       1.35661859       0.00000000
Si      -1.35775521      -1.35499243       1.35747524       0.00000000
Si      -1.35713619       1.35731538      -1.35723538       0.00000000
Si       1.35814617      -1.35771774      -1.35757803       0.00000000
Si      -2.71288773      -0.00109143       2.71049592       0.00000000
Si      -2.71479366       2.71440270      -0.00003427       0.00000000
Si       0.00009774      -2.71470891      -2.71491621       0.00000000
Si       2.71466334       2.71513575       0.00061678       0.00000000
Si      -0.00055386       2.71495656      -2.71484768       0.00000000
Si      -2.71464705      -2.71522288       0.00006853       0.00000000
