10
Lattice="16.28999089631971 0.0 0.0 0.0 16.28999089631971 0.0 0.0 0.0 34.26581377546328" Properties=species:S:1:pos:R:3:initial_magmoms:R:1 pbc="T T T"
Si       1.81866447       1.24976880      -0.69473976       0.00000000
Si      -2.13726429       0.51748443      -0.81943313       0.00000000
Si      -0.34298595      -0.47392497       2.31876891       0.00000000
Si       0.64809765      -1.77218910      -1.47918748       0.00000000
Si       3.35310102      -0.50466420      -0.29516588       0.00000000
Si      -2.91424842      -1.75244562      -0.86610319       0.00000000
Si      -2.96546418       1.64825478       1.12707178       0.00000000
Si      -1.07023671      -3.27359279      -1.00556513       0.00000000
Si      -2.63741616      -0.16074972       2.60917185       0.00000000
Si       0.84414780      -0.56110905      -3.60106491       0.00000000
