10
Lattice="16.28999089631971 0.0 0.0 0.0 16.28999089631971 0.0 0.0 0.0 34.26581377546328" Properties=species:S:1:pos:R:3:initial_magmoms:R:1 pbc="T T T"
Si       2.29443021      -0.31317525      -0.29040293       0.00000000
Si      -1.03762413      -1.72185300      -1.20153143       0.00000000
Si      -0.32804802       1.80900450      -1.48210007       0.00000000
Si      -0.43500816       0.23728014       2.33305777       0.00000000
Si      -3.22454034      -0.99916344      -0.87103747       0.00000000
Si       0.50015187       0.67823415      -3.42860498       0.00000000
Si       3.13175250       1.46921139       1.06378278       0.00000000
Si       2.63741616       0.16074972      -2.60917185       0.00000000
Si      -0.27683226      -1.59169590      -3.47527504       0.00000000
Si       2.94637230      -2.60878974       0.00870352       0.00000000
