10
Lattice="16.28999089631971 0.0 0.0 0.0 16.28999089631971 0.0 0.0 0.0 34.26581377546328" Properties=species:S:1:pos:R:3:initial_magmoms:R:1 pbc="T T T"
Si       0.22103901       1.28357104       1.93081115       0.00000000
Si       0.58293765       0.96997225      -2.04474505       0.00000000
Si      -2.28045339      -0.61158705      -0.18846208       0.00000000
Si       1.49496588      -1.83602490       0.08206667       0.00000000
Si      -0.60611832      -0.52236672      -3.51447515       0.00000000
Si      -0.37670625      -0.27830994       3.57618792       0.00000000
Si       2.90076030       0.61543506      -2.17385871       0.00000000
Si      -2.35616931      -2.67135981       0.99285251       0.00000000
Si      -2.76900678      -0.30553053      -2.54046885       0.00000000
Si      -0.70894080      -2.46753933       2.79496119       0.00000000
