10
Lattice="16.28999089631971 0.0 0.0 0.0 16.28999089631971 0.0 0.0 0.0 34.26581377546328" Properties=species:S:1:pos:R:3:initial_magmoms:R:1 pbc="T T T"
Si      -1.62209304      -1.15279443      -1.31227860       0.00000000
Si       1.09631700       1.66312755      -1.35243816       0.00000000
Si       1.88838567      -1.90434987       0.09676671       0.00000000
Si      -1.73048670       1.44044325       1.56923808       0.00000000
Si       2.45695554       0.27860787      -2.68870285       0.00000000
Si      -0.27075609      -2.44713267      -2.70518471       0.00000000
Si       2.80966662       2.47376682       0.13041576       0.00000000
Si       1.59909156       2.52477081       2.38476491       0.00000000
Si      -3.35474142      -2.02429314       0.03471129       0.00000000
Si      -2.95871523       0.27021852      -2.68284339       0.00000000
