10
Lattice="16.28999089631971 0.0 0.0 0.0 16.28999089631971 0.0 0.0 0.0 34.26581377546328" Properties=species:S:1:pos:R:3:initial_magmoms:R:1 pbc="T T T"
Si      -1.23087240       1.39180131      -1.42258375       0.00000000
Si      -1.35726651      -1.33991766       1.35739300       0.00000000
Si       1.36225125       1.37226960       1.35718740       0.00000000
Si       1.32286203      -1.36681245      -1.43221245       0.00000000
Si       0.66363831       1.94096979      -2.82781668       0.00000000
Si       2.48293809       0.32343795      -2.57805881       0.00000000
Si      -2.70598077      -2.70356985      -0.03524584       0.00000000
Si       0.00239463      -2.70006750       2.71572488       0.00000000
Si      -2.69048898       2.73188187      -0.01410724       0.00000000
Si      -2.71169856       0.01457955       2.71719831       0.00000000
