10
Lattice="16.28999089631971 0.0 0.0 0.0 16.28999089631971 0.0 0.0 0.0 34.26581377546328" Properties=species:S:1:pos:R:3:initial_magmoms:R:1 pbc="T T T"
Si      -1.35498591       1.35865116      -1.35586474       0.00000000
Si      -1.35563751      -1.35679410       1.35785216       0.00000000
Si       1.35930276       1.35788553       1.35723538       0.00000000
Si       1.36083402      -1.35651717      -1.35874307       0.00000000
Si      -2.69190621       0.00309510      -2.73003772       0.00000000
Si      -2.71311579      -2.71420722       0.00126784       0.00000000
Si      -2.71221984       2.71572219       0.00000000       0.00000000
Si       2.71231758       0.00562005      -2.71562208       0.00000000
Si      -2.71334385       0.00092853       2.71484768       0.00000000
Si       0.00234576      -2.71409319       2.71495047       0.00000000
