10
Lattice="16.28999089631971 0.0 0.0 0.0 16.28999089631971 0.0 0.0 0.0 34.26581377546328" Properties=species:S:1:pos:R:3:initial_magmoms:R:1 pbc="T T T"
Si      -1.71334962      -0.81063927      -1.48285392       0.00000000
Si       1.73087766      -1.77543081       0.19874183       0.00000000
Si       1.06417683       1.82524563      -1.36007944       0.00000000
Si      -1.21057506       0.05100399       2.25434915       0.00000000
Si      -0.35271108      -2.19515895      -2.81911861       0.00000000
Si       2.36926647       0.50562531      -2.80805074       0.00000000
Si      -2.80966662      -2.47376682      -0.13041576       0.00000000
Si       0.96221772      -3.46892292      -1.31255273       0.00000000
Si       3.58666704      -0.79495200      -1.18964119       0.00000000
Si       1.63828530      -1.27917225       3.31042212       0.00000000
