10
Lattice="16.28999089631971 0.0 0.0 0.0 16.28999089631971 0.0 0.0 0.0 34.26581377546328" Properties=species:S:1:pos:R:3:initial_magmoms:R:1 pbc="T T T"
Si       0.97502166      -2.04595884       0.64711025       0.00000000
Si      -2.17952055      -0.73407627      -0.60931504       0.00000000
Si      -0.33599754       1.63022175       1.70188112       0.00000000
Si       0.34500591       0.60085665      -2.30684440       0.00000000
Si       0.70524297      -2.85540894      -1.73693507       0.00000000
Si      -2.11237317       2.78137089       0.68254113       0.00000000
Si      -3.58728606       1.02214863       0.09203803       0.00000000
Si       2.54194047       1.23312042      -2.63007401       0.00000000
Si      -2.16640710      -0.74479509      -3.13203419       0.00000000
Si       0.08293239      -1.37077092      -3.64848883       0.00000000
