10
Lattice="16.28999089631971 0.0 0.0 0.0 16.28999089631971 0.0 0.0 0.0 34.26581377546328" Properties=species:S:1:pos:R:3:initial_magmoms:R:1 pbc="T T T"
Si      -0.97502166       2.04595884      -0.64711025       0.00000000
Si       2.16986058       0.28608498       0.99761546       0.00000000
Si      -0.99693171      -0.87105888       2.02699535       0.00000000
Si      -0.26977869      -0.80945010      -2.38404533       0.00000000
Si      -3.15454221       1.31188257      -1.25642530       0.00000000
Si       3.14791218       2.10952242      -0.07692679       0.00000000
Si       1.95677109      -0.65498832      -3.23952611       0.00000000
Si      -2.05337079      -2.89786068       1.49094066       0.00000000
Si       0.56164662      -1.00038519       3.83869847       0.00000000
Si      -0.63001575       2.64681549      -2.95395466       0.00000000
