10
Lattice="16.28999089631971 0.0 0.0 0.0 16.28999089631971 0.0 0.0 0.0 34.26581377546328" Properties=species:S:1:pos:R:3:initial_magmoms:R:1 pbc="T T T"
Si      -1.35773892       1.35743989       1.35973678       0.00000000
Si       1.36036161       1.34071915      -1.37376521       0.00000000
Si       1.35772263      -1.35876519       1.35990811       0.00000000
Si      -1.36692648      -1.36767582      -1.39141212       0.00000000
Si      -2.71337643       2.71177579       0.00161049       0.00000000
Si       2.71199178      -2.71453302       0.00023986       0.00000000
Si      -2.71435383      -2.71538010       0.00414617       0.00000000
Si       0.00030951       2.71443106       2.71707496       0.00000000
Si       2.71849149       2.71352534       0.00243287       0.00000000
Si       2.71507059       0.00021177       2.71721202       0.00000000
