10
Lattice="16.28999089631971 0.0 0.0 0.0 16.28999089631971 0.0 0.0 0.0 34.26581377546328" Properties=species:S:1:pos:R:3:initial_magmoms:R:1 pbc="T T T"
Si      -1.35746199       1.35793440      -1.36079902       0.00000000
Si       1.35812988      -1.35646830      -1.36165567       0.00000000
Si       1.35153243       1.36146933       1.37762355       0.00000000
Si      -1.35417141      -1.35721764       1.38605294       0.00000000
Si      -2.71371852      -2.71336014      -0.00123357       0.00000000
Si       2.71308321      -2.71471221      -0.00226154       0.00000000
Si      -2.71487511       2.71419137       0.00188462       0.00000000
Si       2.71836117       2.71306692      -0.00044546       0.00000000
Si       0.00000000      -2.71423980      -2.71789734       0.00000000
Si      -2.71487511       0.00109143      -2.71762321       0.00000000
