10
Lattice="16.28999089631971 0.0 0.0 0.0 16.28999089631971 0.0 0.0 0.0 34.26581377546328" Properties=species:S:1:pos:R:3:initial_magmoms:R:1 pbc="T T T"
Si      -1.43446482      -1.50728112       1.10579269       0.00000000
Si       1.27221642      -1.37316555      -1.53308763       0.00000000
Si      -1.42962669       1.33863075      -1.53452680       0.00000000
Si       1.66648329       1.20733335       1.55995204       0.00000000
Si       2.68413588      -2.77677711      -0.10485345       0.00000000
Si      -2.74284504       2.73411085      -0.09330586       0.00000000
Si       2.77781967       2.76305476       0.04166725       0.00000000
Si       2.62638783      -0.01594791      -2.91914057       0.00000000
Si      -2.82563082      -2.74401792      -0.25380702       0.00000000
Si      -0.08848728       2.69824346      -2.91725595       0.00000000
