10
Lattice="16.28999089631971 0.0 0.0 0.0 16.28999089631971 0.0 0.0 0.0 34.26581377546328" Properties=species:S:1:pos:R:3:initial_magmoms:R:1 pbc="T T T"
Si       1.73812671      -0.69335127      -1.46959304       0.00000000
Si       0.57627504      -0.65067147       2.22104276       0.00000000
Si      -1.88255385      -1.40253642      -0.51501547       0.00000000
Si      -0.53954109       2.40327999      -0.05777219       0.00000000
Si       3.73684455       0.24373098      -0.71200974       0.00000000
Si       1.21788927       0.19186362      -3.63396011       0.00000000
Si      -2.70242955       2.62011618       0.91623411       0.00000000
Si      -2.70602964      -2.35123344       1.54915831       0.00000000
Si      -1.36414089      -1.54385217       3.32382006       0.00000000
Si      -3.65892948      -0.25138728      -1.53435547       0.00000000
