10
Lattice="16.28999089631971 0.0 0.0 0.0 16.28999089631971 0.0 0.0 0.0 34.26581377546328" Properties=species:S:1:pos:R:3:initial_magmoms:R:1 pbc="T T T"
Si       2.15736615      -0.48998691       0.75347140       0.00000000
Si       0.66624471       1.12555755      -1.95490003       0.00000000
Si      -0.42117795      -2.23013358      -0.75645253       0.00000000
Si      -1.12839201       1.98391023       1.99567638       0.00000000
Si      -2.63823066      -1.75637151      -0.22725100       0.00000000
Si      -2.59879257       2.22971004       0.10745765       0.00000000
Si      -3.45665655       0.23871366      -1.05456527       0.00000000
Si       0.99847926       3.31478694      -1.17367331       0.00000000
Si       3.32863344       1.54021950       1.08050451       0.00000000
Si       0.00749340      -2.70379791       2.78872481       0.00000000
