10
Lattice="16.28999089631971 0.0 0.0 0.0 16.28999089631971 0.0 0.0 0.0 34.26581377546328" Properties=species:S:1:pos:R:3:initial_magmoms:R:1 pbc="T T T"
Si       1.35485559      -1.35568981       1.35795496       0.00000000
Si      -1.36093176       1.35872121       1.35617314       0.00000000
Si       1.36226754       1.35217263      -1.36323875       0.00000000
Si      -1.35812988      -1.37280619      -1.37619809       0.00000000
Si      -2.57776218       0.06450188      -2.79093496       0.00000000
Si       2.70848943      -2.71455161      -0.00140490       0.00000000
Si       2.71068858       0.00097251       2.71549873       0.00000000
Si       2.70938538       2.71716060       0.00212448       0.00000000
Si      -0.00342090      -2.71331357       2.71477915       0.00000000
Si      -0.00322542       2.71553160       2.71477915       0.00000000
