10
Lattice="16.28999089631971 0.0 0.0 0.0 16.28999089631971 0.0 0.0 0.0 34.26581377546328" Properties=species:S:1:pos:R:3:initial_magmoms:R:1 pbc="T T T"
Si      -0.42080328       1.63035207       1.57287026       0.00000000
Si       0.09697437       0.48830904      -2.25013445       0.00000000
Si       2.26207827      -0.10148670       0.44727192       0.00000000
Si      -1.67739759      -1.72688661       0.22934122       0.00000000
Si       0.65089953       0.71895915       3.46777082       0.00000000
Si       2.26373985      -0.81446742       2.73389948       0.00000000
Si      -0.60699798      -3.28243011       1.72340007       0.00000000
Si       3.15742554       2.05884423       0.26840427       0.00000000
Si      -2.68690518       1.89990270       1.88061171       0.00000000
Si      -3.61514196      -0.30902130       1.28387223       0.00000000
