10
Lattice="16.28999089631971 0.0 0.0 0.0 16.28999089631971 0.0 0.0 0.0 34.26581377546328" Properties=species:S:1:pos:R:3:initial_magmoms:R:1 pbc="T T T"
Si       1.75708827       0.97153560      -1.12200043       0.00000000
Si      -1.53443655       1.75443300      -0.39957388       0.00000000
Si       0.13642875      -0.49849029       2.31431436       0.00000000
Si      -0.50611401      -2.11699790      -0.94114537       0.00000000
Si      -2.70500337      -1.26752490      -1.18402159       0.00000000
Si      -3.35310102       0.50466420       0.29516588       0.00000000
Si       2.40510447      -0.08076582       2.66098179       0.00000000
Si       0.68538546       1.88292852      -3.01690099       0.00000000
Si       0.09184302      -3.56015411       0.83238561       0.00000000
Si      -0.52409817       3.61258443       0.56740793       0.00000000
