10
Lattice="16.28999089631971 0.0 0.0 0.0 16.28999089631971 0.0 0.0 0.0 34.26581377546328" Properties=species:S:1:pos:R:3:initial_magmoms:R:1 pbc="T T T"
Si       1.97345205       1.39652541       0.34149329       0.00000000
Si      -1.98848772       1.53293787       0.55500370       0.00000000
Si       0.63744399      -1.12405887      -2.23070572       0.00000000
Si      -0.28813752      -1.05322995       2.46234275       0.00000000
Si      -1.05570603      -3.23154390       0.83543527       0.00000000
Si      -3.54304242       0.72295020      -0.96091675       0.00000000
Si      -1.45425717      -1.90696767      -2.91931190       0.00000000
Si       2.41623054       1.42232877       2.72070713       0.00000000
Si      -0.84605373       1.60796961      -3.46986104       0.00000000
Si       1.35208629       0.65451591      -3.68220641       0.00000000
