10
Lattice="16.28999089631971 0.0 0.0 0.0 16.28999089631971 0.0 0.0 0.0 34.26581377546328" Properties=species:S:1:pos:R:3:initial_magmoms:R:1 pbc="T T T"
Si      -2.22654978      -0.15446178       0.85548078       0.00000000
Si       0.72770688      -2.24331219       0.59906956       0.00000000
Si       0.99704574       2.13640092       0.81072961       0.00000000
Si       0.09259236      -0.49625856      -3.11168029       0.00000000
Si      -2.84886036       1.33017624      -1.05607297       0.00000000
Si      -1.95677109       0.65498832       3.23952611       0.00000000
Si      -1.63828530       1.27917225      -3.31042212       0.00000000
Si       2.99380878      -2.51286282       0.29132811       0.00000000
Si      -0.38985228       3.93406758      -0.03765815       0.00000000
Si       0.77398677      -2.64135834       2.90865523       0.00000000
