10
Lattice="16.28999089631971 0.0 0.0 0.0 16.28999089631971 0.0 0.0 0.0 34.26581377546328" Properties=species:S:1:pos:R:3:initial_magmoms:R:1 pbc="T T T"
Si       2.26610190      -0.26955063      -0.30774145       0.00000000
Si       0.04627989      -0.39804615       2.30958567       0.00000000
Si      -0.72770688       2.24331219      -0.59906956       0.00000000
Si      -0.92823678      -2.20892400      -0.59673948       0.00000000
Si      -2.95425666       2.08885041       0.25641123       0.00000000
Si       1.05661827       1.46010528       3.27656748       0.00000000
Si       2.68690518      -1.89990270      -1.88061171       0.00000000
Si       1.58071644      -2.15247915       2.70915955       0.00000000
Si      -1.77238458      -1.64781495       3.00432543       0.00000000
Si       3.33780471      -1.18094355       1.58715912       0.00000000
