10
Lattice="16.28999089631971 0.0 0.0 0.0 16.28999089631971 0.0 0.0 0.0 34.26581377546328" Properties=species:S:1:pos:R:3:initial_magmoms:R:1 pbc="T T T"
Si       1.39049811      -1.34719929      -1.32053324       0.00000000
Si       1.35904212       1.35387819       1.35585104       0.00000000
Si      -1.35148356      -1.36213722       1.35687901       0.00000000
Si      -1.31732343       1.25630109      -1.53128867       0.00000000
Si       0.75372201       1.99989072      -2.60962621       0.00000000
Si      -0.23079672      -2.41096887      -2.57836721       0.00000000
Si      -2.05009650      -0.79343703      -2.82812508       0.00000000
Si       2.51618598       0.26199207      -2.54621935       0.00000000
Si      -2.71987614       2.70073539      -0.03580094       0.00000000
Si       0.00477297       2.70964602       2.71551929       0.00000000
