10
Lattice="16.28999089631971 0.0 0.0 0.0 16.28999089631971 0.0 0.0 0.0 34.26581377546328" Properties=species:S:1:pos:R:3:initial_magmoms:R:1 pbc="T T T"
Si      -1.35708732       1.35715248       1.35675565       0.00000000
Si      -1.35783666      -1.35690813      -1.35768083       0.00000000
Si       1.35788553      -1.35726651       1.35737244       0.00000000
Si       1.35749457       1.35855342      -1.35802349       0.00000000
Si      -2.71347417      -0.00115659       2.71361411       0.00000000
Si      -0.00086337      -2.71402803       2.71337425       0.00000000
Si       0.00104256       2.71492398       2.71299732       0.00000000
Si      -2.71450044       2.71430496      -0.00078811       0.00000000
Si      -2.71490769      -2.71477737      -0.00017133       0.00000000
Si      -2.71296918      -0.00009774      -2.71676656       0.00000000
