10
Lattice="16.28999089631971 0.0 0.0 0.0 16.28999089631971 0.0 0.0 0.0 34.26581377546328" Properties=species:S:1:pos:R:3:initial_magmoms:R:1 pbc="T T T"
Si      -1.03566770      -0.16696142      -2.10333962       0.00000000
Si       0.95366547       2.15436879      -0.01161612       0.00000000
Si       1.77943815      -1.53696869      -0.58817302       0.00000000
Si      -1.14331039      -0.75148118       2.10601236       0.00000000
Si       0.27767934      -2.68968167       2.20668537       0.00000000
Si      -2.69000747      -1.69032275      -1.60497735       0.00000000
Si       3.10207212      -0.01847286      -1.82414162       0.00000000
Si       0.81580320       2.67805971       2.27099347       0.00000000
Si      -0.36788196       1.05233074       3.51959931       0.00000000
Si       3.25316187       1.79349642      -0.29143091       0.00000000
