10
Lattice="16.28999089631971 0.0 0.0 0.0 16.28999089631971 0.0 0.0 0.0 34.26581377546328" Properties=species:S:1:pos:R:3:initial_magmoms:R:1 pbc="T T T"
Si       1.01348235      -1.74571785      -1.19049783       0.00000000
Si      -2.27190114      -0.56975904      -0.13747452       0.00000000
Si       0.28018800       1.95012477      -1.30525411       0.00000000
Si       0.52600410      -0.27785853       2.35008789       0.00000000
Si      -0.17585055      -3.54206502      -0.32696458       0.00000000
Si      -2.79360468      -0.48718503       2.15984398       0.00000000
Si      -2.36219661      -2.75257017      -1.06251495       0.00000000
Si       2.77558794      -0.93698451       2.51679116       0.00000000
Si       3.36531852      -1.65185487      -0.94138523       0.00000000
Si      -0.49155075       3.83694660      -0.03351198       0.00000000
