10
Lattice="16.28999089631971 0.0 0.0 0.0 16.28999089631971 0.0 0.0 0.0 34.26581377546328" Properties=species:S:1:pos:R:3:initial_magmoms:R:1 pbc="T T T"
Si      -1.36134390      -1.35536058       1.38746469       0.00000000
Si       1.34871426       1.36365219       1.39263883       0.00000000
Si      -1.48495405       1.33457454      -1.41477114       0.00000000
Si       1.49793066      -1.34799750      -1.49741005       0.00000000
Si      -0.20030184      -2.49691491      -2.61467151       0.00000000
Si       2.70598077       2.70356985       0.03524584       0.00000000
Si       2.71831230      -2.71264338       0.01222948       0.00000000
Si      -2.72953927      -2.70795186       0.00834716       0.00000000
Si      -2.72498210       2.71780731       0.03756906       0.00000000
Si       2.70837540       0.00350235       2.75097072       0.00000000
