10
Lattice="16.28999089631971 0.0 0.0 0.0 16.28999089631971 0.0 0.0 0.0 34.26581377546328" Properties=species:S:1:pos:R:3:initial_magmoms:R:1 pbc="T T T"
Si       1.35751086       1.35703845      -1.35624167       0.00000000
Si      -1.35812988      -1.35777150      -1.35624167       0.00000000
Si       1.35495333      -1.35824391       1.35939412       0.00000000
Si      -1.35812988       1.35646830       1.36165567       0.00000000
Si       2.71362078       2.71376739       0.00020559       0.00000000
Si       2.71412577       0.00060273      -2.71330571       0.00000000
Si      -0.00104256      -2.71492398      -2.71299732       0.00000000
Si      -2.71554300      -0.00061902      -2.71378544       0.00000000
Si      -0.00040725       2.71573848      -2.71381970       0.00000000
Si       2.71777473       0.00278559       2.71186655       0.00000000
