10
Lattice="16.28999089631971 0.0 0.0 0.0 16.28999089631971 0.0 0.0 0.0 34.26581377546328" Properties=species:S:1:pos:R:3:initial_magmoms:R:1 pbc="T T T"
Si       1.17924939      -1.37528325      -1.56516045       0.00000000
Si      -0.43118001      -1.57094244       1.82770526       0.00000000
Si      -1.63308879       1.58351832      -1.14033265       0.00000000
Si       1.60632432       1.18115532       1.69776922       0.00000000
Si      -0.20867490       0.42055893       3.04071575       0.00000000
Si       2.11748823       0.37636416      -2.88768454       0.00000000
Si      -2.67548589       2.47920768       0.80685757       0.00000000
Si      -0.61543620      -2.40059214      -2.80513815       0.00000000
Si       3.32250840      -0.41901138       2.14850199       0.00000000
Si      -3.77589168      -0.28372293       1.34801787       0.00000000
