10
Lattice="16.28999089631971 0.0 0.0 0.0 16.28999089631971 0.0 0.0 0.0 34.26581377546328" Properties=species:S:1:pos:R:3:initial_magmoms:R:1 pbc="T T T"
Si       1.99871784       0.93708225       0.75758330       0.00000000
Si      -1.73812671       0.69335127       1.46959304       0.00000000
Si      -0.52023744       0.88521489      -2.16436707       0.00000000
Si       0.83825082      -2.27584332      -0.17712009       0.00000000
Si      -0.74274255      -1.10628648      -3.37737756       0.00000000
Si      -3.62068056      -0.70918515       0.95457757       0.00000000
Si       3.74567373       0.39547233      -0.79387082       0.00000000
Si      -1.16185167       0.04267980       3.69063580       0.00000000
Si       0.64415547      -2.90395314      -2.52898980       0.00000000
Si       2.04737607       3.29369139       0.80089531       0.00000000
