10
Lattice="16.28999089631971 0.0 0.0 0.0 16.28999089631971 0.0 0.0 0.0 34.26581377546328" Properties=species:S:1:pos:R:3:initial_magmoms:R:1 pbc="T T T"
Si      -1.35728623       1.35736425      -1.35552208       0.00000000
Si       1.35780132       1.35619137       1.35798922       0.00000000
Si      -1.35725365      -1.35840681       1.35792069       0.00000000
Si       1.35995323      -1.36010097      -1.36347176       0.00000000
Si      -2.71331470       2.71261080       0.00078811       0.00000000
Si      -0.00368497       2.71306692      -2.71336739       0.00000000
Si      -2.71474822      -0.00355122      -2.71247991       0.00000000
Si       0.00037113       2.71344159       2.71474488       0.00000000
Si      -2.71429210      -0.00135207       2.71464208       0.00000000
Si       2.71557934       2.71340901       0.00150770       0.00000000
