10
Lattice="16.28999089631971 0.0 0.0 0.0 16.28999089631971 0.0 0.0 0.0 34.26581377546328" Properties=species:S:1:pos:R:3:initial_magmoms:R:1 pbc="T T T"
Si      -0.03973131      -1.17126729       2.02826318       0.00000000
Si      -1.49496588       1.83602490      -0.08206667       0.00000000
Si       2.13514659       0.82626138      -0.68236980       0.00000000
Si      -0.98526807      -1.74029328      -1.31772687       0.00000000
Si      -2.20390668      -0.63151443       2.71289452       0.00000000
Si       1.40579442       2.45145996      -2.25592538       0.00000000
Si      -0.91202823       2.80599715      -2.12681172       0.00000000
Si       2.90688534      -1.06056045      -1.95411192       0.00000000
Si       0.35479620      -3.58044426      -0.78633233       0.00000000
Si      -0.16690734      -3.49787025       1.51098617       0.00000000
