10
Lattice="16.28999089631971 0.0 0.0 0.0 16.28999089631971 0.0 0.0 0.0 34.26581377546328" Properties=species:S:1:pos:R:3:initial_magmoms:R:1 pbc="T T T"
Si       1.19829240      -1.29780801       1.49148891       0.00000000
Si      -1.35133695       1.29433824       1.39290611       0.00000000
Si      -1.34122086      -1.35290079      -1.34630458       0.00000000
Si       1.37443617       1.36358703      -1.34102764       0.00000000
Si       2.15914176       0.54278280       2.80195142       0.00000000
Si       0.27075609       2.44713267       2.70518471       0.00000000
Si      -2.67429020      -2.71168390       0.01713292       0.00000000
Si      -2.69968631       0.00461007      -2.69977071       0.00000000
Si      -2.68795914       2.71735119       0.02234132       0.00000000
Si       0.01391166      -2.70680179      -2.69932525       0.00000000
