10
Lattice="16.28999089631971 0.0 0.0 0.0 16.28999089631971 0.0 0.0 0.0 34.26581377546328" Properties=species:S:1:pos:R:3:initial_magmoms:R:1 pbc="T T T"
Si       1.35703845      -1.35705474      -1.35672139       0.00000000
Si      -1.35757602       1.35729909      -1.35689272       0.00000000
Si      -1.35637056      -1.35860229       1.35757803       0.00000000
Si       1.35703845       1.35773892       1.35840041       0.00000000
Si      -2.71399545      -0.00055386      -2.71357984       0.00000000
Si       0.00097740       2.71396287      -2.71385397       0.00000000
Si      -0.00276930      -2.71476108       2.71392250       0.00000000
Si       2.71429210       0.00135207      -2.71464208       0.00000000
Si       2.71466322       2.71479366       0.00010280       0.00000000
Si      -0.00162900      -2.71595025      -2.71388823       0.00000000
