10
Lattice="16.28999089631971 0.0 0.0 0.0 16.28999089631971 0.0 0.0 0.0 34.26581377546328" Properties=species:S:1:pos:R:3:initial_magmoms:R:1 pbc="T T T"
Si      -0.09697437      -0.48830904       2.25013445       0.00000000
Si       1.44533025       1.41770241      -1.16825931       0.00000000
Si      -1.53689634      -1.42056945      -1.19618596       0.00000000
Si       2.16510390      -0.58979574       2.69740637       0.00000000
Si       2.64148866       0.00695583      -2.60331239       0.00000000
Si      -0.06270021      -2.68966633      -2.58573402       0.00000000
Si      -0.07265340       2.74659174      -2.55417519       0.00000000
Si      -1.77437196      -2.21519565       2.47947567       0.00000000
Si      -2.80662039       0.02689479      -2.57778435       0.00000000
Si      -2.02647600      -3.25522418       0.30900928       0.00000000
