10
Lattice="16.28999089631971 0.0 0.0 0.0 16.28999089631971 0.0 0.0 0.0 34.26581377546328" Properties=species:S:1:pos:R:3:initial_magmoms:R:1 pbc="T T T"
Si      -1.75708827      -0.97153560       1.12200043       0.00000000
Si       1.00014084       1.88488332       0.93984327       0.00000000
Si       1.61284032      -1.53342657      -0.73387134       0.00000000
Si      -1.07170281       0.91139292      -1.89490056       0.00000000
Si       0.27082125       2.72357397      -1.76496452       0.00000000
Si       2.92762251       1.63980027      -0.32442891       0.00000000
Si       0.90570771       1.16061363       3.12672299       0.00000000
Si      -3.29152482       0.78289740       0.72242656       0.00000000
Si       1.61117874      -0.82044585      -3.02049891       0.00000000
Si      -0.65089953      -0.71895915      -3.46777082       0.00000000
