10
Lattice="16.28999089631971 0.0 0.0 0.0 16.28999089631971 0.0 0.0 0.0 34.26581377546328" Properties=species:S:1:pos:R:3:initial_magmoms:R:1 pbc="T T T"
Si       2.16707499       0.36683451       0.66924598       0.00000000
Si       0.09443313       0.72426969      -2.18687972       0.00000000
Si      -0.25769151      -2.21291505       0.65625923       0.00000000
Si      -2.11928013       0.78033987       0.60345558       0.00000000
Si      -0.90570771      -1.16061363      -3.12672299       0.00000000
Si       0.20178423      -1.83202227       2.95254976       0.00000000
Si       2.40303564      -1.04922261       2.51086317       0.00000000
Si      -2.52636723      -2.63063952       0.30959180       0.00000000
Si       3.59830366      -0.71324136      -0.90818164       0.00000000
Si      -3.18689415       1.48043520      -1.43731463       0.00000000
