10
Lattice="16.28999089631971 0.0 0.0 0.0 16.28999089631971 0.0 0.0 0.0 34.26581377546328" Properties=species:S:1:pos:R:3:initial_magmoms:R:1 pbc="T T T"
Si      -1.83964599       0.46532385       1.47353361       0.00000000
Si       0.36803997      -2.34874107       0.37497101       0.00000000
Si      -0.85558338       0.81147006      -2.09929625       0.00000000
Si       2.11035321       1.07714367       0.61472904       0.00000000
Si      -1.77401358      -3.24469107      -0.03762388       0.00000000
Si      -1.86388551       2.79327888       1.62673615       0.00000000
Si      -0.63079767      -0.94240908      -3.55514870       0.00000000
Si       2.47524921       0.56368287       2.89464050       0.00000000
Si       0.33374952       2.60781723      -2.96282951       0.00000000
Si      -1.35039213      -0.13328478       3.73716880       0.00000000
