10
Lattice="16.28999089631971 0.0 0.0 0.0 16.28999089631971 0.0 0.0 0.0 34.26581377546328" Properties=species:S:1:pos:R:3:initial_magmoms:R:1 pbc="T T T"
Si      -1.35575154      -1.35729909       1.35641300       0.00000000
Si       1.35705474       1.35770634       1.35661859       0.00000000
Si      -1.35728280       1.35752715      -1.35733817       0.00000000
Si       1.35837423      -1.35865116      -1.35761230       0.00000000
Si       0.00247608       2.71265967       2.71303159       0.00000000
Si      -2.71389771       2.71396287      -0.00027413       0.00000000
Si      -2.71456560      -2.71526607       0.00034266       0.00000000
Si       2.71480876      -0.00004887      -2.71508754       0.00000000
Si       2.71549263       2.71448415      -0.00006853       0.00000000
Si       0.00099369       2.71437012      -2.71563579       0.00000000
