10
Lattice="16.28999089631971 0.0 0.0 0.0 16.28999089631971 0.0 0.0 0.0 34.26581377546328" Properties=species:S:1:pos:R:3:initial_magmoms:R:1 pbc="T T T"
Si       1.35575154       1.35729909      -1.35641300       0.00000000
Si       1.35283563      -1.35558864       1.36172420       0.00000000
Si      -1.35881406      -1.35796698      -1.35607034       0.00000000
Si      -1.36070370       1.35597960       1.35894867       0.00000000
Si       2.71280628       2.71500543       0.00020559       0.00000000
Si       2.71412577      -0.00135207      -2.71402530       0.00000000
Si       0.00211770       2.71700910       2.71142109       0.00000000
Si      -0.00153126       2.71482624      -2.71375117       0.00000000
Si       2.71353933      -2.71551042       0.00133637       0.00000000
Si      -2.71565703       2.71422351      -0.00044546       0.00000000
