10
Lattice="16.28999089631971 0.0 0.0 0.0 16.28999089631971 0.0 0.0 0.0 34.26581377546328" Properties=species:S:1:pos:R:3:initial_magmoms:R:1 pbc="T T T"
Si      -1.34830701      -1.34825814      -1.39568164       0.00000000
Si       1.36967949       1.36601424      -1.39533898       0.00000000
Si       1.40899461      -1.43014797       1.42302578       0.00000000
Si      -1.54758258       1.39171986       1.49868473       0.00000000
Si       2.65146858       0.10393020       2.73417361       0.00000000
Si      -2.70414000      -2.69553888       0.00274127       0.00000000
Si      -2.69902494       2.72433960      -0.04598475       0.00000000
Si       2.71106555       2.73585663      -0.02340356       0.00000000
Si       2.74025071      -2.71160082      -0.03508821       0.00000000
Si      -2.70114264       0.00733050      -2.75740584       0.00000000
