10
Lattice="16.28999089631971 0.0 0.0 0.0 16.28999089631971 0.0 0.0 0.0 34.26581377546328" Properties=species:S:1:pos:R:3:initial_magmoms:R:1 pbc="T T T"
Si      -0.54125154      -1.79302401       1.44499017       0.00000000
Si      -1.52889795       1.41858207      -1.16527818       0.00000000
Si       1.27609900       1.56745638       1.37265500       0.00000000
Si       1.54464453      -1.39823586      -1.28839532       0.00000000
Si       0.15263730       2.56582161      -2.51624291       0.00000000
Si       3.43675736       0.88663212       0.73065036       0.00000000
Si      -2.65440663      -0.11044620      -2.52388419       0.00000000
Si       0.49677237       0.94863186       3.62594191       0.00000000
Si      -2.49424335       2.98778148       0.45803139       0.00000000
Si       0.30217056      -2.93231403      -2.59954315       0.00000000
