10
Lattice="16.28999089631971 0.0 0.0 0.0 16.28999089631971 0.0 0.0 0.0 34.26581377546328" Properties=species:S:1:pos:R:3:initial_magmoms:R:1 pbc="T T T"
Si      -1.98061965      -0.00496845       1.05381143       0.00000000
Si       0.54125154       1.79302401      -1.44499017       0.00000000
Si       1.49977699      -1.84088403       0.09614993       0.00000000
Si      -0.17373285       0.65743182       2.59920049       0.00000000
Si       1.36352091      -1.20150153       2.52086880       0.00000000
Si      -2.37231270      -2.19704859       1.04229811       0.00000000
Si       2.08589607       0.39478815      -2.73338549       0.00000000
Si      -0.13660794      -3.58073748      -0.39210393       0.00000000
Si       1.03802391       2.74165587       2.18095173       0.00000000
Si       1.81735054       3.36048039      -0.07233517       0.00000000
