10
Lattice="16.28999089631971 0.0 0.0 0.0 16.28999089631971 0.0 0.0 0.0 34.26581377546328" Properties=species:S:1:pos:R:3:initial_magmoms:R:1 pbc="T T T"
Si       1.33125610      -1.28145285      -1.45811399       0.00000000
Si       1.24247398       1.53407817       1.31114783       0.00000000
Si      -0.78189477      -1.89545553       1.32687585       0.00000000
Si      -1.40899461       1.43014797      -1.42302578       0.00000000
Si      -2.59515096      -2.59428024      -0.03436863       0.00000000
Si       2.55948464      -0.11122812       2.79396749       0.00000000
Si       2.66787830      -2.70446580      -0.08754920       0.00000000
Si       2.65404809       2.78010027      -0.15388786       0.00000000
Si      -0.03924996      -2.63632473      -2.82182561       0.00000000
Si       2.67672377       0.07566705      -2.82312771       0.00000000
