10
Lattice="16.28999089631971 0.0 0.0 0.0 16.28999089631971 0.0 0.0 0.0 34.26581377546328" Properties=species:S:1:pos:R:3:initial_magmoms:R:1 pbc="T T T"
Si      -1.12550868      -1.52902827      -1.35860601       0.00000000
Si       1.52889795      -1.41858207       1.16527818       0.00000000
Si       1.68153525       1.14723954      -1.35096473       0.00000000
Si      -0.96534540       1.56919941       1.62330957       0.00000000
Si      -2.42189946       2.74931217      -0.09628699       0.00000000
Si      -2.27695104      -0.19640853      -2.90327549       0.00000000
Si      -2.80435608      -2.42219268       0.21008382       0.00000000
Si       2.80499695       0.14887431       2.53793318       0.00000000
Si       0.44215947       2.49396642      -2.89912933       0.00000000
Si      -3.56218317       1.17340128      -1.52174564       0.00000000
