10
Lattice="16.28999089631971 0.0 0.0 0.0 16.28999089631971 0.0 0.0 0.0 34.26581377546328" Properties=species:S:1:pos:R:3:initial_magmoms:R:1 pbc="T T T"
Si       1.34659656       1.92531510       0.12602973       0.00000000
Si       1.02016125      -1.99189233       0.81206597       0.00000000
Si      -1.74695589       0.54160992       1.55145412       0.00000000
Si      -0.73472787      -0.34982775      -2.26271001       0.00000000
Si       3.37256757       0.84093867       0.31685616       0.00000000
Si       0.62260380       2.85765696       2.14569219       0.00000000
Si      -0.75769677      -3.22688610       1.59644516       0.00000000
Si      -1.69829766       2.89821906       1.59476613       0.00000000
Si      -3.74567373      -0.39547233       0.79387082       0.00000000
Si      -2.45091195       1.25033895      -2.71344278       0.00000000
