10
Lattice="16.28999089631971 0.0 0.0 0.0 16.28999089631971 0.0 0.0 0.0 34.26581377546328" Properties=species:S:1:pos:R:3:initial_magmoms:R:1 pbc="T T T"
Si      -2.17339551      -0.76683546       0.18061521       0.00000000
Si       1.89376137      -0.84936060      -1.09623253       0.00000000
Si      -0.53541972       1.76388120      -1.52181417       0.00000000
Si       0.98026704      -0.49291911       2.12838795       0.00000000
Si       2.85604818       0.89220330       1.74604978       0.00000000
Si      -2.94513426       1.11998637       1.45235733       0.00000000
Si       1.83914100       2.89253289       1.11456475       0.00000000
Si      -2.90497941      -0.55216584      -2.11605225       0.00000000
Si       0.18857304       0.83153934      -3.54147663       0.00000000
Si       1.54129464      -3.11832954      -1.26081132       0.00000000
