10
Lattice="16.28999089631971 0.0 0.0 0.0 16.28999089631971 0.0 0.0 0.0 34.26581377546328" Properties=species:S:1:pos:R:3:initial_magmoms:R:1 pbc="T T T"
Si       2.25325724      -0.54944541       0.30842676       0.00000000
Si      -1.07903235      -2.07932076      -0.03803507       0.00000000
Si      -1.53725376       1.85893335       0.07833169       0.00000000
Si       0.13625608      -0.63938250      -2.42471887       0.00000000
Si      -1.36352091       1.20150153      -2.52086880       0.00000000
Si       3.10651114       1.67200560       0.08326597       0.00000000
Si       2.11611172      -1.58816097       2.38541596       0.00000000
Si       2.59269197      -2.15834355      -1.48556092       0.00000000
Si      -3.00651402      -1.83423771       1.22623710       0.00000000
Si      -3.34414056       1.19653308      -1.46705737       0.00000000
