10
Lattice="16.28999089631971 0.0 0.0 0.0 16.28999089631971 0.0 0.0 0.0 34.26581377546328" Properties=species:S:1:pos:R:3:initial_magmoms:R:1 pbc="T T T"
Si      -1.35703833       1.35710361      -1.35706405       0.00000000
Si       1.35743020      -1.35725022      -1.35675565       0.00000000
Si      -1.35762477      -1.35705474       1.35829762       0.00000000
Si       1.35832289       1.35728280       1.35802349       0.00000000
Si      -2.71368582      -0.00083079      -2.71395677       0.00000000
Si      -0.00037113      -2.71344159      -2.71474488       0.00000000
Si       2.71520821      -0.00003258      -2.71323718       0.00000000
Si      -2.71466322      -2.71479366      -0.00010280       0.00000000
Si       2.71569691      -0.00335574       2.71426516       0.00000000
Si       2.71498015       2.71510317       0.00034266       0.00000000
