10
Lattice="16.28999089631971 0.0 0.0 0.0 16.28999089631971 0.0 0.0 0.0 34.26581377546328" Properties=species:S:1:pos:R:3:initial_magmoms:R:1 pbc="T T T"
Si      -1.36795275       1.33208217       1.32204437       0.00000000
Si       1.36428750      -1.33656192       1.34822346       0.00000000
Si       1.37034738       1.34679204      -1.34452275       0.00000000
Si      -1.34527707      -1.37235105      -1.34719549       0.00000000
Si       0.02321325       2.56881897       2.68164408       0.00000000
Si       0.01128897       2.70309744      -2.70285464       0.00000000
Si      -2.70265109      -0.01171251      -2.70343715       0.00000000
Si      -2.69074473      -2.72947095       0.01781823       0.00000000
Si       0.01119123      -2.72624553      -2.70473926       0.00000000
Si       2.72767905      -0.01239669      -2.70432807       0.00000000
