10
Lattice="16.28999089631971 0.0 0.0 0.0 16.28999089631971 0.0 0.0 0.0 34.26581377546328" Properties=species:S:1:pos:R:3:initial_magmoms:R:1 pbc="T T T"
Si       1.39116600       1.23673680       1.35959972       0.00000000
Si       1.36795275      -1.33208217      -1.32204437       0.00000000
Si      -1.35197715       1.38590433      -1.29254148       0.00000000
Si      -1.41157411      -1.24602210       1.46503569       0.00000000
Si       0.48053871       1.03884588       3.48408136       0.00000000
Si      -2.69336321       0.01606194      -2.66447690       0.00000000
Si       0.02267568      -2.70443322      -2.66923985       0.00000000
Si       0.01878237       2.73100221      -2.66368879       0.00000000
Si       2.73224025      -2.66864409       0.02617910       0.00000000
Si       2.73830013       0.01470987      -2.66656712       0.00000000
