10
Lattice="16.28999089631971 0.0 0.0 0.0 16.28999089631971 0.0 0.0 0.0 34.26581377546328" Properties=species:S:1:pos:R:3:initial_magmoms:R:1 pbc="T T T"
Si      -2.22152010       0.63490275       0.26031753       0.00000000
Si       0.75150983       0.94672593      -2.00777221       0.00000000
Si       0.60322196      -2.12058333       0.84807936       0.00000000
Si       0.91310663       1.20669804       1.83777942       0.00000000
Si      -1.86905337       2.90387169       0.42489633       0.00000000
Si      -1.36890474      -2.50398477       2.10680047       0.00000000
Si       2.15927534      -0.80949897      -2.70912528       0.00000000
Si      -2.85107973      -0.61558281       2.06561294       0.00000000
Si       3.17932256       0.60610203       1.66624466       0.00000000
Si      -1.27273281       1.46165283      -3.13230832       0.00000000
