10
Lattice="16.28999089631971 0.0 0.0 0.0 16.28999089631971 0.0 0.0 0.0 34.26581377546328" Properties=species:S:1:pos:R:3:initial_magmoms:R:1 pbc="T T T"
Si       1.80930749      -1.51811397       0.26197535       0.00000000
Si      -1.81944380      -0.64962891       1.40884113       0.00000000
Si       0.67005005       1.91674656       1.46590402       0.00000000
Si      -0.51960620      -0.69802650      -2.43266854       0.00000000
Si      -0.54322004      -1.94417892       2.90113871       0.00000000
Si       0.69680801      -3.32741169       1.44879852       0.00000000
Si       2.19725384       0.77346549       2.88470825       0.00000000
Si      -2.78816123      -2.44076328       0.16320816       0.00000000
Si      -1.54088480       1.12001895      -3.43429310       0.00000000
Si       2.80592969      -2.09249937      -1.85796199       0.00000000
