10
Lattice="16.28999089631971 0.0 0.0 0.0 16.28999089631971 0.0 0.0 0.0 34.35334932831803" Properties=species:S:1:pos:R:3:initial_magmoms:R:1 pbc="T T T"
Si       0.97060870      -2.03683644       0.63522814       0.00000000
Si       1.87501321       1.36915074       0.38712811       0.00000000
Si      -1.18008574       0.26489169      -2.03554015       0.00000000
Si      -1.49168086       0.49635518       1.80571611       0.00000000
Si       1.88209936       0.92895747       2.67873826       0.00000000
Si       0.86982247       3.42017414      -0.13724171       0.00000000
Si       1.79672347      -1.39545027       2.74710147       0.00000000
Si      -2.94160489       2.11238036       0.80434977       0.00000000
Si       3.02974615      -2.11211253      -0.43116913       0.00000000
Si      -3.16184569       1.45880275      -1.44799448       0.00000000
