10
Lattice="16.28999089631971 0.0 0.0 0.0 16.28999089631971 0.0 0.0 0.0 34.35334932831803" Properties=species:S:1:pos:R:3:initial_magmoms:R:1 pbc="T T T"
Si       0.81876798      -1.68298506      -1.45366279       0.00000000
Si       1.35268902       1.46359134       1.31268485       0.00000000
Si      -1.46515518      -1.26469044       1.40075658       0.00000000
Si      -1.70804397       0.37691802      -1.77785553       0.00000000
Si      -1.55295176      -2.19276432      -2.17157948       0.00000000
Si      -0.10171476       1.01123433      -3.40015900       0.00000000
Si       2.55896352       0.01153332       2.75700696       0.00000000
Si       2.12146299      -3.20867388      -0.19756622       0.00000000
Si      -0.16084746      -2.69790093       2.76163436       0.00000000
Si      -0.14186961       2.75590962       2.72940059       0.00000000
