10
Lattice="16.28999089631971 0.0 0.0 0.0 16.28999089631971 0.0 0.0 0.0 34.35334932831803" Properties=species:S:1:pos:R:3:initial_magmoms:R:1 pbc="T T T"
Si       1.35770634       1.35718812       1.35743900       0.00000000
Si      -1.35739683      -1.35799880       1.35778254       0.00000000
Si      -1.35938421       1.35625308      -1.36008421       0.00000000
Si       1.35917244      -1.35837347      -1.36114917       0.00000000
Si       0.01280394       2.69287527      -2.71180338       0.00000000
Si       2.71513575      -2.71318019       0.00068707       0.00000000
Si       0.00014661       2.71434549       2.71480930       0.00000000
Si       2.71430496       0.00010529       2.71535896       0.00000000
Si      -0.00032580      -2.71510241       2.71525589       0.00000000
Si      -2.71551042       0.00025944       2.71498107       0.00000000
