10
Lattice="16.28999089631971 0.0 0.0 0.0 16.28999089631971 0.0 0.0 0.0 34.35334932831803" Properties=species:S:1:pos:R:3:initial_magmoms:R:1 pbc="T T T"
Si      -1.35826020       1.35792347      -1.35826348       0.00000000
Si       1.35762489      -1.35960595      -1.35805736       0.00000000
Si       1.35334062       1.36601309       1.37327591       0.00000000
Si      -1.36692648      -1.37410405       1.38488735       0.00000000
Si       2.61101007      -0.10293019       2.68262019       0.00000000
Si      -2.71480995      -2.71392397       0.00089319       0.00000000
Si       2.71445157      -0.00024753      -2.71553072       0.00000000
Si       0.00029322       2.71399267      -2.71608038       0.00000000
Si      -0.00017919      -2.71545523      -2.71563378       0.00000000
Si       2.71542897       2.71571941      -0.00130543       0.00000000
