10
Lattice="16.28999089631971 0.0 0.0 0.0 16.28999089631971 0.0 0.0 0.0 34.35334932831803" Properties=species:S:1:pos:R:3:initial_magmoms:R:1 pbc="T T T"
Si      -2.06570004       1.13267628      -0.21055180       0.00000000
Si      -0.24578352      -2.30676174      -0.54295499       0.00000000
Si       0.57353832       0.71783514       2.26543289       0.00000000
Si       1.14147288       0.87990435      -1.97981898       0.00000000
Si      -1.47618351       0.25397739       3.32471901       0.00000000
Si       0.76033575       3.25718550      -1.48897805       0.00000000
Si       1.80382428      -2.68660707      -1.76105673       0.00000000
Si      -1.42416628       3.40506612      -0.52065965       0.00000000
Si      -3.03362873       0.18251316      -2.16659825       0.00000000
Si      -3.12998408       1.05077016       1.90187119       0.00000000
