10
Lattice="16.28999089631971 0.0 0.0 0.0 16.28999089631971 0.0 0.0 0.0 34.35334932831803" Properties=species:S:1:pos:R:3:initial_magmoms:R:1 pbc="T T T"
Si       1.35687555       1.35607734      -1.35658017       0.00000000
Si      -1.35703845      -1.35610992      -1.35737030       0.00000000
Si       1.35767376      -1.35821133       1.35664888       0.00000000
Si      -1.35780408       1.35762489       1.35757642       0.00000000
Si       0.00309510       2.70925506      -2.71453447       0.00000000
Si       2.71472850      -0.00107514       2.71374435       0.00000000
Si       2.71474479       2.71396287      -0.00010306       0.00000000
Si      -0.00087966      -2.71428053       2.71446577       0.00000000
Si      -2.71460307      -0.00070047       2.71456883       0.00000000
Si      -2.71510480       2.71453302      -0.00034353       0.00000000
