10
Lattice="16.28999089631971 0.0 0.0 0.0 16.28999089631971 0.0 0.0 0.0 34.35334932831803" Properties=species:S:1:pos:R:3:initial_magmoms:R:1 pbc="T T T"
Si      -1.35832536      -1.34930070       1.37304917       0.00000000
Si       1.35391077       1.36744776       1.37160633       0.00000000
Si      -1.57967388       1.11588129      -1.37257510       0.00000000
Si       1.44290304      -1.25107200      -1.46011435       0.00000000
Si       2.71697652      -2.69081478       0.01155991       0.00000000
Si      -2.72660391      -2.70153360       0.00593626       0.00000000
Si      -2.72513781       2.70747945       0.00877041       0.00000000
Si       2.72319930       2.71759554       0.01512579       0.00000000
Si      -0.00449604      -2.70865233       2.73227455       0.00000000
Si       2.71352304       0.00674406       2.73230891       0.00000000
