10
Lattice="16.28999089631971 0.0 0.0 0.0 16.28999089631971 0.0 0.0 0.0 34.35334932831803" Properties=species:S:1:pos:R:3:initial_magmoms:R:1 pbc="T T T"
Si      -1.34517933      -1.36778985       1.36968942       0.00000000
Si       1.36827855       1.35223290       1.36711291       0.00000000
Si       1.49348349      -1.24322022      -1.36915350       0.00000000
Si      -1.71514152       0.99414612      -1.35934562       0.00000000
Si      -1.77837930      -1.10275155      -2.83366650       0.00000000
Si      -0.43603443       2.18880585      -2.95173903       0.00000000
Si       0.20064393      -2.62637154      -2.71700246       0.00000000
Si      -2.71834488       2.69957880       0.00746155       0.00000000
Si      -2.69353521      -2.72670165      -0.00028513       0.00000000
Si       2.72660391       2.70153360      -0.00593626       0.00000000
