10
Lattice="16.28999089631971 0.0 0.0 0.0 16.28999089631971 0.0 0.0 0.0 34.35334932831803" Properties=species:S:1:pos:R:3:initial_magmoms:R:1 pbc="T T T"
Si       1.40238981      -0.04303818      -1.88438532       0.00000000
Si       0.79700454      -1.07768124       1.94735505       0.00000000
Si      -2.10813777      -0.83466702      -0.71094296       0.00000000
Si      -0.33132231       2.31098085       0.48551616       0.00000000
Si      -1.84401171       0.15123636      -2.82577068       0.00000000
Si      -2.64686436       2.04820686       1.20525358       0.00000000
Si       3.05356050      -1.57074696      -1.30542800       0.00000000
Si       1.87994745       2.22788556      -2.25340921       0.00000000
Si      -3.54566511      -0.12650814       1.03513570       0.00000000
Si      -0.16397514       3.30748902      -1.67424577       0.00000000
