10
Lattice="16.28999089631971 0.0 0.0 0.0 16.28999089631971 0.0 0.0 0.0 34.35334932831803" Properties=species:S:1:pos:R:3:initial_magmoms:R:1 pbc="T T T"
Si      -1.49651343      -0.71008110      -1.61914297       0.00000000
Si      -0.39421800       2.22646833       0.55130286       0.00000000
Si      -0.26412606      -0.98590338       2.11482772       0.00000000
Si       2.15516700      -0.47767167      -1.17914502       0.00000000
Si       1.84401171      -0.15123636       2.82577068       0.00000000
Si       3.24640152      -0.19427454       0.94138536       0.00000000
Si      -0.75660534      -2.99330379      -1.72879892       0.00000000
Si       1.77010398       1.31841486      -2.78904693       0.00000000
Si      -0.52538508       0.72480726      -3.51379995       0.00000000
Si       1.55613483      -2.63236626      -2.04756382       0.00000000
