10
Lattice="16.28999089631971 0.0 0.0 0.0 16.28999089631971 0.0 0.0 0.0 34.35334932831803" Properties=species:S:1:pos:R:3:initial_magmoms:R:1 pbc="T T T"
Si       1.35596331      -1.35480672       1.36183624       0.00000000
Si      -1.35917244       1.35837347       1.36114917       0.00000000
Si       1.37282346       1.35960089      -1.36538150       0.00000000
Si      -1.36695906      -1.37300265      -1.36208014       0.00000000
Si      -2.57323356       0.07905537      -2.80640225       0.00000000
Si       2.71208952      -2.71303434       0.00075577       0.00000000
Si      -2.71521720      -2.71067229       0.00429417       0.00000000
Si       2.71376739       2.71400752       0.00353840       0.00000000
Si       2.71379997       0.00061902       2.71917218       0.00000000
Si      -0.00190593      -2.71425609       2.71882865       0.00000000
