10
Lattice="16.28999089631971 0.0 0.0 0.0 16.28999089631971 0.0 0.0 0.0 34.35334932831803" Properties=species:S:1:pos:R:3:initial_magmoms:R:1 pbc="T T T"
Si       1.35141840       1.33371117       1.35826348       0.00000000
Si       1.35482301      -1.35536058      -1.35544651       0.00000000
Si      -1.35917244       1.35713619      -1.35431285       0.00000000
Si      -1.35948195      -1.34816040       1.40154873       0.00000000
Si      -0.10578726       2.61381195       2.68636471       0.00000000
Si       2.62497060      -0.12525381       2.72896289       0.00000000
Si       2.71085148      -2.71124244       0.00707679       0.00000000
Si       2.71287144       0.00097740      -2.71212974       0.00000000
Si      -0.00144981      -2.71383255      -2.71243892       0.00000000
Si      -0.00234576       2.71649460      -2.71178620       0.00000000
