10
Lattice="16.28999089631971 0.0 0.0 0.0 16.28999089631971 0.0 0.0 0.0 34.35334932831803" Properties=species:S:1:pos:R:3:initial_magmoms:R:1 pbc="T T T"
Si      -1.34094393      -1.35440663      -1.36891990       0.00000000
Si       1.35705474      -1.35460475       1.35867573       0.00000000
Si      -1.35747828       1.36004721       1.35805736       0.00000000
Si       1.35713619       1.36029156      -1.39457843       0.00000000
Si      -2.71376739      -2.71400752      -0.00353840       0.00000000
Si       2.71648782      -2.71138483      -0.00020612       0.00000000
Si       0.00003258      -2.71338850       2.71563378       0.00000000
Si       2.71459818       0.00111912       2.71535896       0.00000000
Si      -2.71523349       0.00155407       2.71504977       0.00000000
Si       2.71430496       2.71757436      -0.00316051       0.00000000
