10
Lattice="16.28999089631971 0.0 0.0 0.0 16.28999089631971 0.0 0.0 0.0 34.35334932831803" Properties=species:S:1:pos:R:3:initial_magmoms:R:1 pbc="T T T"
Si       1.35716877       1.35728280       1.39141792       0.00000000
Si      -1.35713619      -1.36029156       1.39457843       0.00000000
Si      -1.47284406       1.36788759      -1.42066981       0.00000000
Si       1.39926213      -1.41564987      -1.44996637       0.00000000
Si      -2.69808012      -2.71469819       0.02565853       0.00000000
Si       2.71321353       2.70467757       0.01631098       0.00000000
Si       2.71277370      -2.72423276       0.02061889       0.00000000
Si      -2.72495862       2.71409319       0.03806353       0.00000000
Si       2.71480995      -0.00009774       2.75201743       0.00000000
Si       0.00016290       2.71464705       2.75236097       0.00000000
