10
Lattice="16.28999089631971 0.0 0.0 0.0 16.28999089631971 0.0 0.0 0.0 34.35334932831803" Properties=species:S:1:pos:R:3:initial_magmoms:R:1 pbc="T T T"
Si      -1.42368084      -1.23278973      -1.35987809       0.00000000
Si      -1.88273304       0.98982927       1.11504164       0.00000000
Si       0.88625745      -1.92201542       1.24012225       0.00000000
Si       1.76187753       1.47165489      -1.17292706       0.00000000
Si       0.03507237      -0.68166320      -3.10578499       0.00000000
Si       1.69474644      -2.63299247      -0.80888442       0.00000000
Si      -0.52709553       2.18857779       2.64286446       0.00000000
Si       2.34501066      -0.59495967       2.61356790       0.00000000
Si       0.69110325       3.62920023      -0.84907786       0.00000000
Si       2.13680817       0.56568654      -3.35993121       0.00000000
