10
Lattice="16.28999089631971 0.0 0.0 0.0 16.28999089631971 0.0 0.0 0.0 34.35334932831803" Properties=species:S:1:pos:R:3:initial_magmoms:R:1 pbc="T T T"
Si      -1.35584928      -1.35760860      -1.35658017       0.00000000
Si       1.35879777       1.35729909      -1.35633970       0.00000000
Si      -1.35487188       1.35769005       1.36259201       0.00000000
Si       1.35801585      -1.35715248       1.36077128       0.00000000
Si      -2.71381626      -0.00063531      -2.71346952       0.00000000
Si       0.00104256      -2.71471221      -2.71395047       0.00000000
Si      -2.71306692       2.71583622       0.00048095       0.00000000
Si       0.00149868       2.71521720      -2.71391611       0.00000000
Si      -2.71383255      -2.71567332       0.00037789       0.00000000
Si       2.71624347       0.00014661      -2.71395047       0.00000000
