10
Lattice="16.28999089631971 0.0 0.0 0.0 16.28999089631971 0.0 0.0 0.0 34.35334932831803" Properties=species:S:1:pos:R:3:initial_magmoms:R:1 pbc="T T T"
Si       0.33120828      -1.65076344       1.65576366       0.00000000
Si      -1.68363666       1.64066364       0.39530421       0.00000000
Si      -0.49963059      -1.02227895      -2.10287275       0.00000000
Si       1.89516231       1.42863300      -0.47445437       0.00000000
Si       1.74519657      -1.27342188      -2.84789425       0.00000000
Si       2.59327026      -2.33552988       1.00827137       0.00000000
Si      -2.21721561       2.35488240      -1.75490748       0.00000000
Si      -2.25969993       0.32153202      -2.90485214       0.00000000
Si       0.98461647       3.57762609      -0.40976698       0.00000000
Si      -0.58681467       3.51969885       1.33291070       0.00000000
