10
Lattice="16.28999089631971 0.0 0.0 0.0 16.28999089631971 0.0 0.0 0.0 34.35334932831803" Properties=species:S:1:pos:R:3:initial_magmoms:R:1 pbc="T T T"
Si      -1.35723393      -1.35677781       1.35730159       0.00000000
Si       1.35627282       1.35847197       1.35699241       0.00000000
Si       1.35733167      -1.35739683      -1.35709547       0.00000000
Si      -1.35793440       1.35759231      -1.35702676       0.00000000
Si       0.00144981       2.71383255       2.71243892       0.00000000
Si       2.71432125       2.71480995       0.00030918       0.00000000
Si       2.71463076      -2.71531494       0.00048095       0.00000000
Si      -2.71489140       0.00118917      -2.71511848       0.00000000
Si       2.71567332      -0.00188964      -2.71439706       0.00000000
Si      -2.71536381      -2.71500543       0.00061836       0.00000000
