10
Lattice="16.28999089631971 0.0 0.0 0.0 16.28999089631971 0.0 0.0 0.0 34.35334932831803" Properties=species:S:1:pos:R:3:initial_magmoms:R:1 pbc="T T T"
Si      -1.46492712       1.24349715       1.35520604       0.00000000
Si       1.34170956       1.36994013      -1.37221095       0.00000000
Si      -1.37904624      -1.34249148      -1.36668006       0.00000000
Si       1.26333837      -1.44464607       1.51350636       0.00000000
Si      -2.44126827      -0.52196418       2.75634252       0.00000000
Si       2.68684002       2.70435177      -0.00127107       0.00000000
Si       2.68705179      -2.70720252       0.00944718       0.00000000
Si       2.69410536       0.01348812      -2.72903160       0.00000000
Si      -0.01852173      -2.70301599      -2.72806970       0.00000000
Si      -0.42821523      -2.17606707       3.13921082       0.00000000
