10
Lattice="16.28999089631971 0.0 0.0 0.0 16.28999089631971 0.0 0.0 0.0 34.35334932831803" Properties=species:S:1:pos:R:3:initial_magmoms:R:1 pbc="T T T"
Si      -1.82728188      -0.94690512      -1.20600936       0.00000000
Si       0.97634115       1.76546133      -1.40113649       0.00000000
Si      -1.19604438       0.93015900       1.94440066       0.00000000
Si       2.01305304      -1.65410289       0.38286829       0.00000000
Si       2.45931759       0.22553505       2.45729645       0.00000000
Si      -0.31232817      -2.18553156      -2.73531826       0.00000000
Si      -0.20373903       3.03792210       1.83704638       0.00000000
Si       0.30020841       0.18832869       3.55176042       0.00000000
Si       2.44126827       0.52196418      -2.75634252       0.00000000
Si       1.12313034      -3.42467928      -1.22510983       0.00000000
