10
Lattice="16.28999089631971 0.0 0.0 0.0 16.28999089631971 0.0 0.0 0.0 34.35334932831803" Properties=species:S:1:pos:R:3:initial_magmoms:R:1 pbc="T T T"
Si      -1.23553134       0.11779299       1.98493763       0.00000000
Si       1.86028542       1.45697760       0.03346018       0.00000000
Si       0.55312695      -2.24582085      -0.48579098       0.00000000
Si      -1.55106864       0.46496547      -1.77720281       0.00000000
Si      -2.35155924      -1.94002497       1.64751885       0.00000000
Si      -2.88670203       1.64550177       1.40598031       0.00000000
Si      -0.73985922       2.52521064      -2.49996333       0.00000000
Si      -1.19009853      -2.80114695      -2.04574310       0.00000000
Si       2.59802694      -2.21198652      -1.50076126       0.00000000
Si       2.76413607       1.34350146      -2.12571774       0.00000000
