10
Lattice="16.28999089631971 0.0 0.0 0.0 16.28999089631971 0.0 0.0 0.0 34.35334932831803" Properties=species:S:1:pos:R:3:initial_magmoms:R:1 pbc="T T T"
Si      -1.65117069       1.52770878      -0.57895732       0.00000000
Si       1.23553134      -0.11779299      -1.98493763       0.00000000
Si      -1.11602790      -2.05781796      -0.33741879       0.00000000
Si       1.12343985       0.34472898       2.07411898       0.00000000
Si       1.83065391      -1.81985364       2.57145269       0.00000000
Si      -3.05356050       1.57074696       1.30542800       0.00000000
Si      -0.31553730       0.34717248      -3.76214045       0.00000000
Si       2.94754518       1.73281617       1.70042304       0.00000000
Si       1.78865829      -2.36361384      -2.47072862       0.00000000
Si      -1.74188970      -2.34323505      -2.57677747       0.00000000
