10
Lattice="16.28999089631971 0.0 0.0 0.0 16.28999089631971 0.0 0.0 0.0 34.35334932831803" Properties=species:S:1:pos:R:3:initial_magmoms:R:1 pbc="T T T"
Si       1.49625279      -0.74183031       1.60735976       0.00000000
Si       0.99230535       2.10776310      -0.10735428       0.00000000
Si       1.19604438      -0.93015900      -1.94440066       0.00000000
Si      -2.12688756      -0.10884978       1.78287112       0.00000000
Si       0.68504337      -2.80207548       2.33012028       0.00000000
Si      -0.63123750      -1.87706412      -3.15041001       0.00000000
Si       3.65536197      -0.70462395       0.51289579       0.00000000
Si       1.66982274       2.64240090       2.10218568       0.00000000
Si       1.43684316       0.75220704       3.42846618       0.00000000
Si      -0.56948211       3.74044971      -0.74158617       0.00000000
