10
Lattice="16.28999089631971 0.0 0.0 0.0 16.28999089631971 0.0 0.0 0.0 34.35334932831803" Properties=species:S:1:pos:R:3:initial_magmoms:R:1 pbc="T T T"
Si      -0.98642466       1.95823949       0.66569958       0.00000000
Si       2.26787751       0.36789336       0.12174834       0.00000000
Si      -0.23297958      -1.89019386       1.32628050       0.00000000
Si      -0.67751739      -0.53463780      -2.20953996       0.00000000
Si      -2.96512209       1.53712344      -0.45937324       0.00000000
Si      -0.17356995      -3.38423121      -0.49482592       0.00000000
Si       3.18378276      -1.39939245      -1.04166284       0.00000000
Si       2.49678459       2.45835878      -0.95141654       0.00000000
Si      -1.66982274      -2.64240090      -2.10218568       0.00000000
Si      -2.23930485       1.09804881      -2.84377185       0.00000000
