10
Lattice="16.28999089631971 0.0 0.0 0.0 16.28999089631971 0.0 0.0 0.0 34.35334932831803" Properties=species:S:1:pos:R:3:initial_magmoms:R:1 pbc="T T T"
Si       1.12888071      -1.21292082       1.62323102       0.00000000
Si       1.39354434       0.00521280      -1.91100918       0.00000000
Si       0.12101841       2.32737578       0.56133404       0.00000000
Si      -2.04240762      -0.94910427      -0.87267862       0.00000000
Si      -0.68118264      -0.65260998       3.08912360       0.00000000
Si      -1.87506045       0.04740390      -3.03244055       0.00000000
Si      -1.41229413       3.22876501      -0.96017665       0.00000000
Si       2.28061629       2.86793662      -0.11103009       0.00000000
Si       0.16886214      -1.03219956      -3.61160399       0.00000000
Si      -1.71108531      -3.26008512      -1.35819478       0.00000000
