10
Lattice="16.28999089631971 0.0 0.0 0.0 16.28999089631971 0.0 0.0 0.0 34.35334932831803" Properties=species:S:1:pos:R:3:initial_magmoms:R:1 pbc="T T T"
Si      -1.12888071       1.21292082      -1.62323102       0.00000000
Si      -1.81006335       0.56031084       1.46589259       0.00000000
Si       0.07859925      -2.43009333      -0.27259398       0.00000000
Si       1.98169479       1.21942053       0.79665462       0.00000000
Si      -0.21579363       0.05634711       3.15570043       0.00000000
Si       3.28714281      -0.64984068       1.34345718       0.00000000
Si       1.63349604      -1.53305190       2.83717600       0.00000000
Si       1.06991091       2.08495710       2.84696671       0.00000000
Si       0.26466363       1.21813362      -3.53424020       0.00000000
Si      -1.00786230       3.54029660      -1.06189697       0.00000000
