10
Lattice="16.28999089631971 0.0 0.0 0.0 16.28999089631971 0.0 0.0 0.0 34.35334932831803" Properties=species:S:1:pos:R:3:initial_magmoms:R:1 pbc="T T T"
Si       0.80848899      -0.71097705      -2.04900667       0.00000000
Si       1.45875321       1.32705575       1.37344565       0.00000000
Si      -1.30209228      -1.42464195       1.44469110       0.00000000
Si      -0.88625745       1.92201542      -1.24012225       0.00000000
Si      -2.30993829       0.68922568      -2.60000034       0.00000000
Si       2.55238236      -2.20382523      -1.83738992       0.00000000
Si      -2.63858904       0.02800742       2.84907055       0.00000000
Si       0.06996555      -2.69448003       2.85872728       0.00000000
Si       0.05949108       2.74270562       2.82341202       0.00000000
Si       2.77226478       0.01847286       2.84403091       0.00000000
