10
Lattice="16.28999089631971 0.0 0.0 0.0 16.28999089631971 0.0 0.0 0.0 34.35334932831803" Properties=species:S:1:pos:R:3:initial_magmoms:R:1 pbc="T T T"
Si       0.73782297      -1.36554706      -1.71639735       0.00000000
Si       1.15057899       2.02299189       0.03455949       0.00000000
Si       0.42316533      -1.52435827       1.76627844       0.00000000
Si      -2.32930710       0.16183007       0.42010734       0.00000000
Si      -1.04436819      -3.14115706       0.96824969       0.00000000
Si      -2.24570682       0.81403932       2.69000617       0.00000000
Si       0.68145957       2.77972755       2.21754429       0.00000000
Si      -0.68312115      -3.29460886      -1.37063070       0.00000000
Si      -0.51469884      -0.48482821       3.64262508       0.00000000
Si      -0.24672834      -0.72518716      -3.73091324       0.00000000
