10
Lattice="16.28999089631971 0.0 0.0 0.0 16.28999089631971 0.0 0.0 0.0 34.35334932831803" Properties=species:S:1:pos:R:3:initial_magmoms:R:1 pbc="T T T"
Si       1.84917957       0.84183462       1.27950980       0.00000000
Si      -1.86939153       1.63491327       0.16152580       0.00000000
Si      -0.89039511      -1.95666425       1.31331352       0.00000000
Si       0.95242484       0.40993622      -2.38195951       0.00000000
Si       0.38499886       1.97742681       2.78880100       0.00000000
Si      -2.36390706      -0.74284748       2.76027740       0.00000000
Si      -0.89568936       3.33141903       1.42685483       0.00000000
Si       0.04769712       2.61314406      -2.68035287       0.00000000
Si       1.50844001      -3.10053176      -1.76624409       0.00000000
Si      -3.67741863       0.56573541       1.28969214       0.00000000
