10
Lattice="16.28999089631971 0.0 0.0 0.0 16.28999089631971 0.0 0.0 0.0 34.35334932831803" Properties=species:S:1:pos:R:3:initial_magmoms:R:1 pbc="T T T"
Si       0.95521858       2.05732926       0.52718679       0.00000000
Si       0.90472772      -2.20320784       0.29839336       0.00000000
Si      -2.13817653       0.49435263       0.98975490       0.00000000
Si       0.07387515       0.06426405      -2.41328979       0.00000000
Si      -1.33908687       2.91284748       1.37533711       0.00000000
Si      -1.67125626      -1.57152888      -2.65094639       0.00000000
Si      -1.91708865      -0.97823079       2.84187867       0.00000000
Si      -0.54951057       2.30759253      -2.69079630       0.00000000
Si       0.42378144       2.20332024       2.80748202       0.00000000
Si      -0.22133223      -3.18755406      -1.64958005       0.00000000
