10
Lattice="16.28999089631971 0.0 0.0 0.0 16.28999089631971 0.0 0.0 0.0 34.35334932831803" Properties=species:S:1:pos:R:3:initial_magmoms:R:1 pbc="T T T"
Si       1.35264015       1.33465599      -1.38605536       0.00000000
Si      -1.36353816      -1.37613033      -1.38529959       0.00000000
Si       1.32325299      -1.33837011       1.47994312       0.00000000
Si      -1.30417740       1.45207431       1.51453696       0.00000000
Si      -0.45936171      -2.05921890       3.02072605       0.00000000
Si      -2.30824413      -0.23374521       2.95098871       0.00000000
Si       2.70101232       2.69151525      -0.00724856       0.00000000
Si      -2.73963591       2.69122203       0.00432852       0.00000000
Si       2.69780319      -2.74102056      -0.00003435       0.00000000
Si      -0.00456120       2.69570178      -2.74476544       0.00000000
