10
Lattice="16.28999089631971 0.0 0.0 0.0 16.28999089631971 0.0 0.0 0.0 34.35334932831803" Properties=species:S:1:pos:R:3:initial_magmoms:R:1 pbc="T T T"
Si      -1.35692442       1.35262386       1.35991245       0.00000000
Si       1.35793457       1.35614250      -1.35664888       0.00000000
Si      -1.35703845      -1.35843939      -1.35647711       0.00000000
Si       1.35776551      -1.35720135       1.36262636       0.00000000
Si      -2.71412577       2.71366965       0.00120237       0.00000000
Si       2.71526348       2.71262709       0.00034353       0.00000000
Si      -0.00011403       2.71511946      -2.71360693       0.00000000
Si      -2.71487511      -0.00086337      -2.71405353       0.00000000
Si       2.71520647      -0.00107514      -2.71381305       0.00000000
Si       0.00037467      -2.71583622      -2.71415659       0.00000000
