10
Lattice="16.28999089631971 0.0 0.0 0.0 16.28999089631971 0.0 0.0 0.0 34.35334932831803" Properties=species:S:1:pos:R:3:initial_magmoms:R:1 pbc="T T T"
Si       1.02936675       1.62471573      -1.40391911       0.00000000
Si       0.05997978       1.51076718       1.98301384       0.00000000
Si      -1.84204062      -1.11812931      -1.27547187       0.00000000
Si       1.62534031      -2.00298582       0.25005817       0.00000000
Si      -0.01337409      -2.41422687       2.12485890       0.00000000
Si       2.27286618       0.19539855      -2.77513382       0.00000000
Si      -0.46749042      -2.52077976      -2.75544934       0.00000000
Si      -2.30615901      -1.58345316       2.55805488       0.00000000
Si       2.53974851       2.84475528      -0.00206120       0.00000000
Si       3.55101542      -1.05795405      -1.15427318       0.00000000
