10
Lattice="16.28999089631971 0.0 0.0 0.0 16.28999089631971 0.0 0.0 0.0 34.35334932831803" Properties=species:S:1:pos:R:3:initial_magmoms:R:1 pbc="T T T"
Si      -2.14534413       0.54421632       0.80077702       0.00000000
Si       0.82632654       2.15800146      -0.45260563       0.00000000
Si       1.53610857      -0.70244109       1.78778365       0.00000000
Si      -0.05997978      -1.51076718      -1.98301384       0.00000000
Si      -2.01448656      -0.96264126       2.55218045       0.00000000
Si       2.47976873       1.33398810      -1.98507505       0.00000000
Si       0.96938697       0.11394855      -3.38693296       0.00000000
Si       0.42676542       3.18366873       1.82371727       0.00000000
Si      -1.84837743       2.59284672       1.92722397       0.00000000
Si       0.89457482      -2.97483093       2.09789151       0.00000000
