10
Lattice="16.28999089631971 0.0 0.0 0.0 16.28999089631971 0.0 0.0 0.0 34.35334932831803" Properties=species:S:1:pos:R:3:initial_magmoms:R:1 pbc="T T T"
Si       1.81985364       0.11495853       1.44287583       0.00000000
Si      -0.91054584       2.14899309       0.06468739       0.00000000
Si       0.71573373      -0.53265042      -2.16807544       0.00000000
Si      -1.89516231      -1.42863300       0.47445437       0.00000000
Si      -2.18461932       2.10362544      -1.88211800       0.00000000
Si      -0.65060631       1.08222615      -3.34368207       0.00000000
Si      -0.14996574      -2.70205488      -2.37343988       0.00000000
Si       2.44323936      -2.12836995       1.72038234       0.00000000
Si      -3.57879897       0.21203064       0.86975858       0.00000000
Si       1.05608070       1.46298861       3.22942276       0.00000000
