10
Lattice="16.28999089631971 0.0 0.0 0.0 16.28999089631971 0.0 0.0 0.0 34.35334932831803" Properties=species:S:1:pos:R:3:initial_magmoms:R:1 pbc="T T T"
Si       1.35687555       1.35796698      -1.35781689       0.00000000
Si      -1.35819504      -1.35738054      -1.35764512       0.00000000
Si       1.35720135      -1.36104579       1.35871008       0.00000000
Si      -1.36052451       1.36052451       1.36138964       0.00000000
Si       2.71412577      -2.71366965      -0.00120237       0.00000000
Si       2.71401174       0.00144981      -2.71480930       0.00000000
Si       2.71262709       2.71650411      -0.00096189       0.00000000
Si      -0.00074934      -2.71453302      -2.71525589       0.00000000
Si      -2.71549413       0.00053757      -2.71522154       0.00000000
Si      -0.00089595       2.71557558      -2.71532460       0.00000000
