10
Lattice="16.28999089631971 0.0 0.0 0.0 16.28999089631971 0.0 0.0 0.0 34.35334932831803" Properties=species:S:1:pos:R:3:initial_magmoms:R:1 pbc="T T T"
Si      -1.54768032      -1.64537145       0.55473819       0.00000000
Si      -0.48462750       2.22132069      -0.59946628       0.00000000
Si       0.52484751      -0.92851371      -2.12564903       0.00000000
Si       1.43291727       0.41388003       1.92516277       0.00000000
Si       1.75176144       3.13471728      -0.86587665       0.00000000
Si      -0.18134028      -3.26024802       1.73034482       0.00000000
Si       2.64844842      -0.08685828      -2.59017528       0.00000000
Si      -1.96480206       2.92869765       1.14527260       0.00000000
Si       2.45916839       2.47972896       1.31089019       0.00000000
Si      -3.08169333      -0.62397216       2.01630226       0.00000000
