10
Lattice="16.28999089631971 0.0 0.0 0.0 16.28999089631971 0.0 0.0 0.0 34.35334932831803" Properties=species:S:1:pos:R:3:initial_magmoms:R:1 pbc="T T T"
Si      -1.10418507      -0.10959912      -2.07367238       0.00000000
Si       0.83924451      -2.10869163       0.67971575       0.00000000
Si       2.12328747       0.93535551      -0.49032563       0.00000000
Si      -0.97818192       1.12565529       1.85621556       0.00000000
Si       1.06323201       1.27578393       3.06057596       0.00000000
Si       3.01373212       0.87221547       1.73821174       0.00000000
Si      -2.92829040      -1.49768631      -1.69997644       0.00000000
Si       2.29353426      -2.62441674      -1.29378221       0.00000000
Si      -0.94700286      -3.61690128       0.74416267       0.00000000
Si       3.31978538      -0.55856781      -1.90805479       0.00000000
