10
Lattice="16.28999089631971 0.0 0.0 0.0 16.28999089631971 0.0 0.0 0.0 34.35334932831803" Properties=species:S:1:pos:R:3:initial_magmoms:R:1 pbc="T T T"
Si       0.16755894       1.70971695      -1.59873706       0.00000000
Si      -2.20468860       0.66150432       0.63619003       0.00000000
Si       0.62498214      -1.67604552      -1.59550785       0.00000000
Si       1.41990156       0.41174604       2.61535630       0.00000000
Si       3.05306921       0.48203739       0.67421921       0.00000000
Si      -2.34004221      -1.76985963       1.30532494       0.00000000
Si       2.75635338      -0.59873895      -1.62958639       0.00000000
Si      -1.19425248       3.18710592       0.91304383       0.00000000
Si       0.75313557       3.52921221      -0.27754086       0.00000000
Si      -1.87385499       1.55958831      -2.80309746       0.00000000
