10
Lattice="16.28999089631971 0.0 0.0 0.0 16.28999089631971 0.0 0.0 0.0 34.35334932831803" Properties=species:S:1:pos:R:3:initial_magmoms:R:1 pbc="T T T"
Si      -2.18450203       0.14788062       0.96831840       0.00000000
Si       1.06715790       0.94613949       1.96927250       0.00000000
Si       0.38113713      -2.37728115      -0.49084093       0.00000000
Si       0.44874063       0.26386542      -2.60869175       0.00000000
Si       2.75674041      -1.89092691      -0.86790350       0.00000000
Si      -0.76033575      -3.25718550       1.48897805       0.00000000
Si      -2.82603579      -2.12450922       1.27842626       0.00000000
Si      -1.24084188       2.18430981      -2.80454030       0.00000000
Si       0.07524351      -0.13378977       3.84506948       0.00000000
Si       0.32724981       3.22936218       2.07892845       0.00000000
