10
Lattice="16.28999089631971 0.0 0.0 0.0 16.28999089631971 0.0 0.0 0.0 34.35334932831803" Properties=species:S:1:pos:R:3:initial_magmoms:R:1 pbc="T T T"
Si       2.13506677      -0.28204506       0.79366587       0.00000000
Si      -0.95521858      -2.05732926      -0.52718679       0.00000000
Si      -0.53143714       0.14599098       2.28029522       0.00000000
Si      -2.29430545       0.85551822       0.84815032       0.00000000
Si      -2.26850209       1.59829335      -1.43143616       0.00000000
Si       3.07739440       0.01295055      -1.43562727       0.00000000
Si      -3.09339511      -1.56297663       0.46256811       0.00000000
Si      -1.50472915       0.25026327      -3.21798309       0.00000000
Si      -0.88134343      -1.99306521      -2.94047658       0.00000000
Si       2.40468256      -2.43851526       1.85484143       0.00000000
