10
Lattice="16.28999089631971 0.0 0.0 0.0 16.28999089631971 0.0 0.0 0.0 34.35334932831803" Properties=species:S:1:pos:R:3:initial_magmoms:R:1 pbc="T T T"
Si       1.27910709       1.19465973      -1.59239341       0.00000000
Si       1.71514152      -0.99414612       1.35934562       0.00000000
Si      -1.00320336       1.70543268       1.36680717       0.00000000
Si      -0.06323778      -2.09689767      -1.47432088       0.00000000
Si      -2.14598758      -2.20672485      -0.04617436       0.00000000
Si       1.30673493      -0.78573186      -2.93849580       0.00000000
Si      -2.35254153       0.36217557       2.73085576       0.00000000
Si       0.36996219      -2.36193597       2.72903503       0.00000000
Si      -2.30751108       3.13864317       0.00592939       0.00000000
Si       3.20862501      -2.23736634      -0.00980789       0.00000000
