10
Lattice="16.28999089631971 0.0 0.0 0.0 16.28999089631971 0.0 0.0 0.0 34.35334932831803" Properties=species:S:1:pos:R:3:initial_magmoms:R:1 pbc="T T T"
Si       1.35101858      -1.35351981      -1.35596181       0.00000000
Si       1.35457957       1.35775521       1.35678629       0.00000000
Si      -1.35999810      -1.35615879       1.35661452       0.00000000
Si      -1.36203435       1.35764118      -1.35991245       0.00000000
Si       2.70035675      -0.01026270      -2.72001040       0.00000000
Si       2.71164572       2.71412577      -0.00058401       0.00000000
Si       2.71293263       0.00014661       2.71353823       0.00000000
Si       2.71475711      -2.71223613      -0.00264521       0.00000000
Si      -0.00194950      -2.71513575       2.71357258       0.00000000
Si      -0.00268105       2.71534752       2.71364129       0.00000000
