10
Lattice="16.28999089631971 0.0 0.0 0.0 16.28999089631971 0.0 0.0 0.0 34.35334932831803" Properties=species:S:1:pos:R:3:initial_magmoms:R:1 pbc="T T T"
Si      -2.12360091      -0.84165543       0.46452625       0.00000000
Si       0.04055233       2.32406172      -0.34466735       0.00000000
Si      -0.17664224      -0.78683958      -2.21507085       0.00000000
Si       2.08310330      -1.06850997       0.66168023       0.00000000
Si       3.07501769       0.01141929      -1.21411675       0.00000000
Si       2.33510960       2.29464198      -1.10446080       0.00000000
Si      -1.88246004      -3.14113554       0.20745999       0.00000000
Si      -0.81817600      -3.05922942      -1.90496299       0.00000000
Si      -2.64844842       0.08685828       2.59017528       0.00000000
Si      -0.89668698       3.22157556       1.72429863       0.00000000
