10
Lattice="16.28999089631971 0.0 0.0 0.0 16.28999089631971 0.0 0.0 0.0 34.35334932831803" Properties=species:S:1:pos:R:3:initial_magmoms:R:1 pbc="T T T"
Si      -0.04055233      -2.32406172       0.34466735       0.00000000
Si      -1.32653772       0.77520852      -1.83446988       0.00000000
Si       2.29455727      -0.02941974      -0.75979345       0.00000000
Si      -0.93723930       0.89751384       2.06896597       0.00000000
Si      -0.21719457      -3.11090130      -1.87040350       0.00000000
Si      -1.54918944       3.11753133      -1.68389907       0.00000000
Si       3.03446536      -2.31264243      -0.86944940       0.00000000
Si      -2.16415323      -3.16571715       0.80919360       0.00000000
Si      -3.17362824      -0.01588275       2.33537635       0.00000000
Si       3.79107070       0.68066136       0.85934951       0.00000000
