10
Lattice="16.28999089631971 0.0 0.0 0.0 16.28999089631971 0.0 0.0 0.0 34.35334932831803" Properties=species:S:1:pos:R:3:initial_magmoms:R:1 pbc="T T T"
Si       0.62105625      -1.55173653       1.66101972       0.00000000
Si       0.89880075       2.17471500       0.17011788       0.00000000
Si       1.43752734      -0.70815888      -1.74607866       0.00000000
Si      -2.31924965      -0.16039134      -0.47452308       0.00000000
Si      -0.31501602       3.04108236      -1.66606967       0.00000000
Si       0.53696727      -3.49730010       0.30529839       0.00000000
Si       3.54566511       0.12650814      -1.03513570       0.00000000
Si       2.64013659      -0.67903236       2.53452282       0.00000000
Si       1.32049998      -3.03596730      -1.86325800       0.00000000
Si      -3.51574757       1.33353198       0.94320609       0.00000000
