10
Lattice="16.28999089631971 0.0 0.0 0.0 16.28999089631971 0.0 0.0 0.0 34.35334932831803" Properties=species:S:1:pos:R:3:initial_magmoms:R:1 pbc="T T T"
Si      -1.39384852       1.31650893       1.35671415       0.00000000
Si       1.30430772      -1.43321049       1.36087778       0.00000000
Si       1.46515518       1.26469044      -1.40075658       0.00000000
Si      -1.72096424      -0.99836523      -1.63119898       0.00000000
Si      -0.24288879       1.64160846      -3.17861211       0.00000000
Si       2.28392316      -0.41829462      -2.85441937       0.00000000
Si      -0.08779658      -0.92807388      -3.57233606       0.00000000
Si      -0.04275311       2.64565890       2.72073526       0.00000000
Si       2.67586056      -0.06144588       2.72262469       0.00000000
Si      -3.49624844       0.88106094      -1.31980616       0.00000000
