10
Lattice="16.28999089631971 0.0 0.0 0.0 16.28999089631971 0.0 0.0 0.0 34.35334932831803" Properties=species:S:1:pos:R:3:initial_magmoms:R:1 pbc="T T T"
Si      -1.35899546       1.35582714      -1.36382873       0.00000000
Si       1.35814626      -1.36124127      -1.36338214       0.00000000
Si       1.37175656       1.35726229       1.38066188       0.00000000
Si      -1.36642370      -1.38320019       1.36396614       0.00000000
Si      -2.71225463       2.71102157      -0.00422546       0.00000000
Si       2.71295787       2.71274831      -0.00384758       0.00000000
Si      -2.71155416      -2.71761183      -0.00697373       0.00000000
Si       2.71522218      -2.71598283      -0.00388193       0.00000000
Si      -0.00004184       2.71225961      -2.72044325       0.00000000
Si      -2.71461668      -0.00267096      -2.72071808       0.00000000
