10
Lattice="16.28999089631971 0.0 0.0 0.0 16.28999089631971 0.0 0.0 0.0 34.35334932831803" Properties=species:S:1:pos:R:3:initial_magmoms:R:1 pbc="T T T"
Si      -1.05140907      -1.81467994       1.12675613       0.00000000
Si       1.33819776      -1.37493627      -1.45163594       0.00000000
Si      -1.40297985       1.33050204      -1.45039922       0.00000000
Si       0.68985087       1.84829598       1.55510829       0.00000000
Si      -1.51238349      -0.93659355       3.29191154       0.00000000
Si       2.61552598       2.79332775       0.15077693       0.00000000
Si      -0.94886352       1.43705493       3.42990902       0.00000000
Si       2.63302144      -2.82699008       0.03229217       0.00000000
Si      -2.77753005       2.73315249       0.02957825       0.00000000
Si       2.67939907      -0.01945026      -2.83614540       0.00000000
