10
Lattice="16.28999089631971 0.0 0.0 0.0 16.28999089631971 0.0 0.0 0.0 34.35334932831803" Properties=species:S:1:pos:R:3:initial_magmoms:R:1 pbc="T T T"
Si       0.34958340       2.28599199       0.24160724       0.00000000
Si       1.21381677      -0.86636736       1.83618755       0.00000000
Si       1.62245142      -0.53686953      -1.64353386       0.00000000
Si      -2.32172248      -0.23446197      -0.68380380       0.00000000
Si       0.53442603       2.71609427      -2.08799774       0.00000000
Si       0.31501602      -3.04108236       1.66606967       0.00000000
Si       1.31111694       0.91439028      -3.37305420       0.00000000
Si       3.52935882      -0.60359337       1.11645012       0.00000000
Si      -3.51239183       0.27955269       1.32425365       0.00000000
Si      -2.71164059      -2.54648538      -0.98522026       0.00000000
