10
Lattice="10.86 0.0 0.0 0.0 10.86 0.0 0.0 0.0 10.86" Properties=species:S:1:pos:R:3:initial_magmoms:R:1 pbc="T T T"
Si       0.83966262       1.59308598      -1.32980700       0.00000000
Si      -1.46308092      -1.14754362      -1.37197638       0.00000000
Si      -1.53852534       1.36807764       1.24114596       0.00000000
Si       0.50179716      -2.61502284       0.36513492       0.00000000
Si       2.35390500       0.17924430      -2.70375990       0.00000000
Si      -0.36109500      -2.53575570      -2.70375990       0.00000000
Si       2.35390500       2.89424430       0.01124010       0.00000000
Si       2.79452778      -2.71041708      -0.34821504       0.00000000
Si      -0.36109500       2.89424430      -2.70375990       0.00000000
Si      -3.07609500      -2.53575570       0.01124010       0.00000000
