10
Lattice="10.86 0.0 0.0 0.0 10.86 0.0 0.0 0.0 10.86" Properties=species:S:1:pos:R:3:initial_magmoms:R:1 pbc="T T T"
Si      -1.53901404       0.94253940       1.10874084       0.00000000
Si       1.17598596       0.94253940      -1.60625916       0.00000000
Si       1.17598596      -1.77246060       1.10874084       0.00000000
Si      -0.18151404       2.30003940       2.46624084       0.00000000
Si       2.53348596       2.30003940      -0.24875916       0.00000000
Si       2.53348596      -0.41496060       2.46624084       0.00000000
Si      -2.42837202      -0.54222894      -2.59447572       0.00000000
Si      -2.89651404       2.30003940      -0.24875916       0.00000000
Si      -0.18151404       2.30003940      -2.96375916       0.00000000
Si      -2.89651404      -0.41496060       2.46624084       0.00000000
