10
Lattice="16.28999089631971 0.0 0.0 0.0 16.28999089631971 0.0 0.0 0.0 34.26581377546328" Properties=species:S:1:pos:R:3:initial_magmoms:R:1 pbc="T T T"
Si       1.34071587       1.35283563       1.34572206       0.00000000
Si      -1.33215059      -1.35879125       1.36384868       0.00000000
Si       1.35500220      -1.35373647      -1.35288362       0.00000000
Si      -1.35855505       1.35754344      -1.35336334       0.00000000
Si      -2.60527322       0.07897392       2.67311189       0.00000000
Si       2.54026260       0.05509278       2.83851307       0.00000000
Si      -0.01112607       2.64764628       2.73962187       0.00000000
Si       2.71275741       0.00114030      -2.71032459       0.00000000
Si      -0.00187335      -2.71408351      -2.71025606       0.00000000
Si      -0.00203625       2.71551042      -2.71035885       0.00000000
