10
Lattice="16.28999089631971 0.0 0.0 0.0 16.28999089631971 0.0 0.0 0.0 34.26581377546328" Properties=species:S:1:pos:R:3:initial_magmoms:R:1 pbc="T T T"
Si       2.14845552      -0.44460297       1.05936249       0.00000000
Si      -1.27371510      -2.11577289       0.00387204       0.00000000
Si      -0.21308949       0.91219113      -2.28580518       0.00000000
Si      -0.92911644       1.69148844       1.70201819       0.00000000
Si      -2.83439484      -1.87730847       1.78408486       0.00000000
Si      -1.17113697      -0.92849742      -3.59599357       0.00000000
Si       3.08636856       1.76684598       1.65603344       0.00000000
Si      -2.73378780      -1.98511569      -2.02661842       0.00000000
Si      -0.83346156       0.63754173       3.84226211       0.00000000
Si       1.95248682      -1.65143133       3.18226790       0.00000000
