10
Lattice="16.28999089631971 0.0 0.0 0.0 16.28999089631971 0.0 0.0 0.0 34.26581377546328" Properties=species:S:1:pos:R:3:initial_magmoms:R:1 pbc="T T T"
Si      -2.29443021       0.31338702       0.29043720       0.00000000
Si       0.83724084       1.78253325       1.35432278       0.00000000
Si       0.34314885       0.47418561      -2.31866612       0.00000000
Si       0.65202354      -2.29546625       0.29907219       0.00000000
Si       3.08130237       1.15632936       1.11843679       0.00000000
Si      -2.62260855       2.12258700      -1.19166287       0.00000000
Si      -3.33205434      -1.40859630      -0.91105997       0.00000000
Si      -1.79422947       0.99168633      -3.13789365       0.00000000
Si      -2.72961756       0.55069974       2.62356350       0.00000000
Si       3.83272749      -0.52864308      -0.29979177       0.00000000
