10
Lattice="16.28999089631971 0.0 0.0 0.0 16.28999089631971 0.0 0.0 0.0 34.26581377546328" Properties=species:S:1:pos:R:3:initial_magmoms:R:1 pbc="T T T"
Si       1.35378045      -1.35874890      -1.35915426       0.00000000
Si       1.35356868       1.36404315       1.35843468       0.00000000
Si      -1.36065483       1.35742941      -1.35925706       0.00000000
Si      -1.37499003      -1.36326123       1.34023952       0.00000000
Si       2.70772380      -2.71174743       0.00325525       0.00000000
Si       2.71171485       0.00017919      -2.71515607       0.00000000
Si       2.71422351       2.71306692      -0.00322099       0.00000000
Si      -2.71713942       2.71107954      -0.00150770       0.00000000
Si      -0.00210141       2.71476108      -2.71549873       0.00000000
Si      -0.00294849      -2.71495656      -2.71580712       0.00000000
