10
Lattice="16.28999089631971 0.0 0.0 0.0 16.28999089631971 0.0 0.0 0.0 34.26581377546328" Properties=species:S:1:pos:R:3:initial_magmoms:R:1 pbc="T T T"
Si       2.22632172       0.15460839      -0.85051224       0.00000000
Si      -1.05052581      -2.16547857      -0.21220830       0.00000000
Si      -0.62030691       1.48388868      -1.90994326       0.00000000
Si       0.27054432       0.80925462       2.38322295       0.00000000
Si      -0.70490088       2.85474105       1.73611269       0.00000000
Si      -0.35921079       3.45652623      -0.57052612       0.00000000
Si       2.96495919      -2.09012103      -0.25819305       0.00000000
Si      -2.88285759       2.12105574       1.12614660       0.00000000
Si      -2.86998849       2.10909888      -1.39571591       0.00000000
Si      -3.40969248      -1.70585622      -0.44459918       0.00000000
