10
Lattice="16.28999089631971 0.0 0.0 0.0 16.28999089631971 0.0 0.0 0.0 34.26581377546328" Properties=species:S:1:pos:R:3:initial_magmoms:R:1 pbc="T T T"
Si       1.31673699      -1.25600787       1.53106252       0.00000000
Si       2.07036126       0.74383398      -1.07828134       0.00000000
Si      -1.40336721       1.44412479       1.49374017       0.00000000
Si      -0.73345725      -2.04965667      -1.29686382       0.00000000
Si       1.41687162       0.16366563      -3.33228856       0.00000000
Si      -2.62870101      -2.59862967       0.10801961       0.00000000
Si       2.70743058      -2.60359812       0.21127627       0.00000000
Si      -1.86932637       2.63829582      -2.09035771       0.00000000
Si      -0.03450222      -2.61834057       2.88793468       0.00000000
Si       2.67582798       0.09772371       2.88683817       0.00000000
