10
Lattice="16.28999089631971 0.0 0.0 0.0 16.28999089631971 0.0 0.0 0.0 34.26581377546328" Properties=species:S:1:pos:R:3:initial_magmoms:R:1 pbc="T T T"
Si      -1.70758296      -0.82210743      -1.48463574       0.00000000
Si       1.73143152      -1.79224209       0.18623480       0.00000000
Si       1.06741854       1.81656306      -1.36371162       0.00000000
Si      -1.20591612       0.04222368       2.25267012       0.00000000
Si      -0.34914357      -2.20208220      -2.82220253       0.00000000
Si       2.36887551       0.49941882      -2.81459552       0.00000000
Si      -2.80640862      -2.48243310      -0.13490458       0.00000000
Si       0.96640425      -3.47853402      -1.31659610       0.00000000
Si       3.60013887      -0.80813061      -1.19615170       0.00000000
Si       1.64071251      -1.28705661       3.31210114       0.00000000
