10
Lattice="16.28999089631971 0.0 0.0 0.0 16.28999089631971 0.0 0.0 0.0 34.26581377546328" Properties=species:S:1:pos:R:3:initial_magmoms:R:1 pbc="T T T"
Si      -2.11455603      -0.38092536      -0.97147063       0.00000000
Si       1.59928704      -1.25291277      -1.24515184       0.00000000
Si       0.46175634       2.34562968      -0.15309974       0.00000000
Si      -0.11668527      -0.73855602       2.29735277       0.00000000
Si      -1.80460620       2.94612795       0.01843502       0.00000000
Si       3.15814230      -1.38230424       0.56672261       0.00000000
Si      -1.54815273      -2.33064288      -2.22563438       0.00000000
Si       2.27216178      -0.62530794       2.70977633       0.00000000
Si      -2.71618645       1.74011409      -1.81838496       0.00000000
Si       0.54281538      -3.27947022      -1.78106946       0.00000000
