10
Lattice="16.28999089631971 0.0 0.0 0.0 16.28999089631971 0.0 0.0 0.0 34.26581377546328" Properties=species:S:1:pos:R:3:initial_magmoms:R:1 pbc="T T T"
Si      -1.35741312      -1.35681039      -1.35675565       0.00000000
Si       1.35780408       1.35798405      -1.35689272       0.00000000
Si       1.35746199      -1.35795069       1.36093609       0.00000000
Si      -1.35741312       1.35621219       1.36288924       0.00000000
Si       0.00004887      -2.71502172      -2.71460782       0.00000000
Si       2.71518462       0.00138465      -2.71467635       0.00000000
Si      -2.71554300       0.00099369      -2.71443649       0.00000000
Si       2.71562445      -2.71437012      -0.00089091       0.00000000
Si      -2.71531494      -2.71497285       0.00130210       0.00000000
Si       0.00043983       2.71558765      -2.71477915       0.00000000
