10
Lattice="16.28999089631971 0.0 0.0 0.0 16.28999089631971 0.0 0.0 0.0 34.26581377546328" Properties=species:S:1:pos:R:3:initial_magmoms:R:1 pbc="T T T"
Si       0.49189284      -0.65759472       2.17087758       0.00000000
Si       1.04215275      -0.89588484      -1.94568253       0.00000000
Si      -0.98764641       2.17897876       0.00592799       0.00000000
Si      -1.10001483      -2.76276771       0.54287359       0.00000000
Si      -1.77251490      -1.42636869       2.33864310       0.00000000
Si       2.67654474      -2.47909365      -0.80593239       0.00000000
Si       0.51973245       1.14124712       3.65780913       0.00000000
Si       2.46715308      -2.05786683       2.23683931       0.00000000
Si      -2.44771911       2.30963597      -2.02456247       0.00000000
Si      -2.54832615       2.41744319       1.78614081       0.00000000
