10
Lattice="16.28999089631971 0.0 0.0 0.0 16.28999089631971 0.0 0.0 0.0 34.26581377546328" Properties=species:S:1:pos:R:3:initial_magmoms:R:1 pbc="T T T"
Si      -0.18979479       0.98844692      -2.15381319       0.00000000
Si      -2.16264411       0.21691764       0.97390350       0.00000000
Si       1.18933290       1.49234060       1.46966157       0.00000000
Si       0.53986689      -2.40342660       0.05773793       0.00000000
Si       0.60628122       0.52238725       3.51444089       0.00000000
Si      -2.79474498       2.37921056       0.25952942       0.00000000
Si      -1.67420475      -0.08922033       3.32597881       0.00000000
Si      -0.21763440      -0.81039492      -3.64074475       0.00000000
Si      -2.03436036       2.50953056      -2.01435125       0.00000000
Si       3.50699265       1.13796794       1.34041085       0.00000000
