10
Lattice="16.28999089631971 0.0 0.0 0.0 16.28999089631971 0.0 0.0 0.0 34.26581377546328" Properties=species:S:1:pos:R:3:initial_magmoms:R:1 pbc="T T T"
Si      -1.36045935      -1.34001118       1.37442654       0.00000000
Si      -1.22008842       1.43825224      -1.41527484       0.00000000
Si       1.35816246       1.37345877       1.37699648       0.00000000
Si       1.44749682      -1.29943279      -1.43382979       0.00000000
Si       2.72793969      -2.68668919       0.01039283       0.00000000
Si       0.69721200       2.23152963      -3.03601246       0.00000000
Si      -0.00273672      -2.69882524       2.73447172       0.00000000
Si      -2.72780937      -2.70811054      -0.01839733       0.00000000
Si      -2.70853830       2.73089958      -0.00539344       0.00000000
Si       2.72064177       2.72540985       0.01351444       0.00000000
