10
Lattice="16.28999089631971 0.0 0.0 0.0 16.28999089631971 0.0 0.0 0.0 34.26581377546328" Properties=species:S:1:pos:R:3:initial_magmoms:R:1 pbc="T T T"
Si       0.76901832       1.70610057       1.48779304       0.00000000
Si       1.84137273      -1.63112747       0.08011352       0.00000000
Si      -1.91730042      -0.79327739       1.62073761       0.00000000
Si       0.28817010       1.05432138      -2.46076653       0.00000000
Si      -0.76711239      -2.17789106      -1.62587951       0.00000000
Si      -2.78718642      -1.59732247      -0.52687145       0.00000000
Si      -1.70017101       2.58714522      -1.90631108       0.00000000
Si       2.70427032       2.47674789       0.25922103       0.00000000
Si       2.02342977       0.49388022       3.04952690       0.00000000
Si      -0.69721200      -2.23152963       3.03601246       0.00000000
