10
Lattice="16.28999089631971 0.0 0.0 0.0 16.28999089631971 0.0 0.0 0.0 34.26581377546328" Properties=species:S:1:pos:R:3:initial_magmoms:R:1 pbc="T T T"
Si       1.35764118      -1.35723393      -1.36525358       0.00000000
Si      -1.36060596       1.36023129      -1.36491092       0.00000000
Si      -1.37916027      -1.34755767       1.37148996       0.00000000
Si       1.35653346       1.37055915       1.39300891       0.00000000
Si       2.71109583      -2.71336014      -0.00815527       0.00000000
Si      -2.71482624       2.71441899      -0.00969723       0.00000000
Si       2.71000440       2.72023452      -0.00366644       0.00000000
Si      -2.72132595      -2.71039536      -0.00322099       0.00000000
Si      -0.00169416      -2.71401174      -2.72204350       0.00000000
Si       2.71355562       0.00118917      -2.72252322       0.00000000
