10
Lattice="16.28999089631971 0.0 0.0 0.0 16.28999089631971 0.0 0.0 0.0 34.26581377546328" Properties=species:S:1:pos:R:3:initial_magmoms:R:1 pbc="T T T"
Si      -0.22421556       1.75363479       1.45561258       0.00000000
Si       2.11934529      -0.78056793      -0.60708776       0.00000000
Si      -1.15773030      -1.72590921       1.12412491       0.00000000
Si      -1.06833078       0.70139853      -2.04515624       0.00000000
Si      -0.40630518      -3.41088165      -0.29410364       0.00000000
Si       1.86194700      -2.99294541       0.05252952       0.00000000
Si       2.21413680      -0.05585841      -2.78992412       0.00000000
Si      -2.41064307       2.54317851       0.72009648       0.00000000
Si       0.78480333       1.76902884      -3.15166851       0.00000000
Si       0.96453090       3.55029147       0.59276464       0.00000000
