10
Lattice="16.28999089631971 0.0 0.0 0.0 16.28999089631971 0.0 0.0 0.0 34.26581377546328" Properties=species:S:1:pos:R:3:initial_magmoms:R:1 pbc="T T T"
Si      -1.23126336       1.30754943      -1.61844382       0.00000000
Si      -1.86870735      -0.98411148       1.38238650       0.00000000
Si       0.96316254       1.80340074       1.49039240       0.00000000
Si       1.48273209      -1.38878766      -1.58500037       0.00000000
Si       0.19168443      -1.81475487       2.32627313       0.00000000
Si      -2.53272033       2.62469367      -0.16755992       0.00000000
Si      -2.63373462      -2.67040341      -0.12044440       0.00000000
Si       2.63725326       2.69900865      -0.08861144       0.00000000
Si      -0.73821393       3.65062158       1.07169819       0.00000000
Si      -3.60013887       0.80813061       1.19615170       0.00000000
