10
Lattice="16.28999089631971 0.0 0.0 0.0 16.28999089631971 0.0 0.0 0.0 34.26581377546328" Properties=species:S:1:pos:R:3:initial_magmoms:R:1 pbc="T T T"
Si      -1.36150354      -1.35527913       1.38873596       0.00000000
Si       1.34835588       1.36391283       1.39414996       0.00000000
Si      -1.48409882       1.33481889      -1.41323260       0.00000000
Si       1.49727906      -1.34791605      -1.49498060       0.00000000
Si      -0.20088828      -2.49658911      -2.61305211       0.00000000
Si       2.70560610       2.70306486       0.03675696       0.00000000
Si       2.71845891      -2.71254564       0.01275374       0.00000000
Si      -2.73015529      -2.70765864       0.00870352       0.00000000
Si      -2.72540564       2.71792134       0.03917270       0.00000000
Si       2.70809847       0.00363267       2.75248184       0.00000000
