10
Lattice="16.28999089631971 0.0 0.0 0.0 16.28999089631971 0.0 0.0 0.0 34.26581377546328" Properties=species:S:1:pos:R:3:initial_magmoms:R:1 pbc="T T T"
Si       1.17846747      -1.37502261      -1.56485206       0.00000000
Si      -0.43258095      -1.57227822       1.82760246       0.00000000
Si      -1.63439199       1.58320881      -1.13975013       0.00000000
Si       1.60577046       1.18227933       1.69859160       0.00000000
Si      -0.20939166       0.42122682       3.04277170       0.00000000
Si       2.11669002       0.37610352      -2.88720482       0.00000000
Si      -2.67654474       2.47909365       0.80593239       0.00000000
Si      -0.61603893      -2.40095052      -2.80411017       0.00000000
Si       3.32110746      -0.41806656       2.14767961       0.00000000
Si      -3.77655957      -0.28367406       1.34880598       0.00000000
