10
Lattice="16.28999089631971 0.0 0.0 0.0 16.28999089631971 0.0 0.0 0.0 34.26581377546328" Properties=species:S:1:pos:R:3:initial_magmoms:R:1 pbc="T T T"
Si       1.03485483       1.49649551      -1.44057472       0.00000000
Si      -1.45797129       1.23665372       1.41185511       0.00000000
Si       1.26025956      -1.47744666       1.38381196       0.00000000
Si      -1.64002833      -0.88835397      -1.55755827       0.00000000
Si      -0.77713074       3.21952139      -1.37845076       0.00000000
Si      -2.71238274       2.44887407      -0.14987875       0.00000000
Si       2.57492772       2.68022465      -0.07250308       0.00000000
Si       2.60390763      -0.11290436       2.77276721       0.00000000
Si      -0.11129328       2.60195120       2.77756443       0.00000000
Si      -0.27039771      -1.04109390      -3.66446154       0.00000000
