10
Lattice="16.28999089631971 0.0 0.0 0.0 16.28999089631971 0.0 0.0 0.0 34.26581377546328" Properties=species:S:1:pos:R:3:initial_magmoms:R:1 pbc="T T T"
Si      -1.35703845       1.35512926       1.36069623       0.00000000
Si       1.35783447      -1.35961702       1.35963398       0.00000000
Si       1.35031770       1.35993481      -1.38387021       0.00000000
Si      -1.34364807      -1.36454229      -1.38895526       0.00000000
Si      -2.60390763       0.11290436      -2.77276721       0.00000000
Si      -2.71520091       2.71485556       0.00479722       0.00000000
Si       2.71896946       2.71231432      -0.00383777       0.00000000
Si       0.00167787       2.71407364       2.71782880       0.00000000
Si      -2.71384884      -0.00137813       2.71810293       0.00000000
Si      -2.71614573      -2.71692180       0.00109651       0.00000000
