10
Lattice="16.28999089631971 0.0 0.0 0.0 16.28999089631971 0.0 0.0 0.0 34.26581377546328" Properties=species:S:1:pos:R:3:initial_magmoms:R:1 pbc="T T T"
Si      -1.60904475       1.54803870       0.73212379       0.00000000
Si       0.00423540       0.73695960      -2.28213874       0.00000000
Si      -0.51709347      -2.33721427      -0.41160119       0.00000000
Si       2.14130977       0.83924451       0.80600092       0.00000000
Si       2.30605380      -1.13995954       2.30252691       0.00000000
Si       1.31883840       3.17342232       0.41098440       0.00000000
Si       1.32186834      -1.03081491      -3.09732290       0.00000000
Si      -2.27353014       0.82106487      -2.70744626       0.00000000
Si      -0.61261803       3.41863569       1.67789504       0.00000000
Si      -2.63275722       2.61172683      -1.14211448       0.00000000
