10
Lattice="16.28999089631971 0.0 0.0 0.0 16.28999089631971 0.0 0.0 0.0 34.26581377546328" Properties=species:S:1:pos:R:3:initial_magmoms:R:1 pbc="T T T"
Si       1.21538061      -0.90699529      -1.75691205       0.00000000
Si       0.28404873      -1.63470217       1.63472009       0.00000000
Si       0.51709347       2.33721427       0.41160119       0.00000000
Si      -2.35439370      -0.13048616      -0.59485486       0.00000000
Si       1.83896181       1.30639936      -2.68572172       0.00000000
Si       0.52132887       3.07417387      -1.87053755       0.00000000
Si      -3.35873736       0.78105500       1.33019963       0.00000000
Si      -0.43992774      -0.70185532       3.65434828       0.00000000
Si      -0.40650066      -2.71720525      -2.64628175       0.00000000
Si       2.30948217      -2.71940440       1.82506679       0.00000000
