10
Lattice="16.28999089631971 0.0 0.0 0.0 16.28999089631971 0.0 0.0 0.0 34.26581377546328" Properties=species:S:1:pos:R:3:initial_magmoms:R:1 pbc="T T T"
Si      -1.32683679       1.27568619       1.49279101       0.00000000
Si      -1.54007289      -1.18372914      -1.36807164       0.00000000
Si       0.93462246       1.68990831      -1.44023549       0.00000000
Si       1.37929761      -1.43319420       1.46140008       0.00000000
Si      -3.35205846       0.53929674      -1.30594769       0.00000000
Si      -2.60962542       2.54262465      -0.00188119       0.00000000
Si       2.62535409       2.60928333       0.03946396       0.00000000
Si      -2.57492772      -2.68022465       0.07250308       0.00000000
Si      -0.86025861       3.49549191      -1.24646220       0.00000000
Si       0.03060891       2.63674827       2.84972485       0.00000000
