10
Lattice="16.28999089631971 0.0 0.0 0.0 16.28999089631971 0.0 0.0 0.0 34.26581377546328" Properties=species:S:1:pos:R:3:initial_magmoms:R:1 pbc="T T T"
Si      -1.35765747       1.35804843      -1.35689272       0.00000000
Si       1.35886849      -1.35775521      -1.35850321       0.00000000
Si      -1.35962856      -1.36819710       1.35113606       0.00000000
Si       1.37133034       1.35503478       1.36354029       0.00000000
Si       0.11215032      -2.63632473       2.66797202       0.00000000
Si      -2.55857256       0.04178385       2.78074087       0.00000000
Si       2.71599002       2.71187775      -0.00116504       0.00000000
Si       0.00075470      -2.71430496      -2.71501901       0.00000000
Si      -2.71425609       0.00063531      -2.71570432       0.00000000
Si      -2.71671588      -2.71391400      -0.00133637       0.00000000
