10
Lattice="16.28999089631971 0.0 0.0 0.0 16.28999089631971 0.0 0.0 0.0 34.26581377546328" Properties=species:S:1:pos:R:3:initial_magmoms:R:1 pbc="T T T"
Si       1.35765747      -1.35804843       1.35689272       0.00000000
Si      -1.35659862      -1.35741312      -1.35881160       0.00000000
Si       1.35799141       1.35742941      -1.35874307       0.00000000
Si      -1.36014984       1.36163223       1.36004517       0.00000000
Si      -2.71251306      -2.71583622      -0.00154196       0.00000000
Si      -2.71342530       2.71578735      -0.00137063       0.00000000
Si      -2.71423980      -0.00008145      -2.71567006       0.00000000
Si       0.00037467      -2.71440270      -2.71553299       0.00000000
Si       0.00097740       2.71450044      -2.71577285       0.00000000
Si       2.71542312       0.00017919      -2.71543020       0.00000000
