10
Lattice="16.28999089631971 0.0 0.0 0.0 16.28999089631971 0.0 0.0 0.0 34.26581377546328" Properties=species:S:1:pos:R:3:initial_magmoms:R:1 pbc="T T T"
Si      -1.79559783      -0.73308258      -1.36638435       0.00000000
Si       0.80129991       1.86409728      -1.32358633       0.00000000
Si      -0.55079748      -0.32293296       2.34203541       0.00000000
Si       1.73018438      -1.70719200      -0.06616732       0.00000000
Si       1.45787259       1.14893370       2.82470394       0.00000000
Si       2.13430507       0.58016835      -2.78358494       0.00000000
Si      -0.59665383      -2.14306353      -2.79598917       0.00000000
Si      -2.58149259       0.93577905       2.36790612       0.00000000
Si       0.87512505      -3.41119116      -1.47915321       0.00000000
Si       3.46927220      -0.84251880      -1.41264323       0.00000000
