10
Lattice="16.28999089631971 0.0 0.0 0.0 16.28999089631971 0.0 0.0 0.0 34.26581377546328" Properties=species:S:1:pos:R:3:initial_magmoms:R:1 pbc="T T T"
Si      -1.83938535       0.46563336       1.47363641       0.00000000
Si       0.36763272      -2.34867591       0.37510807       0.00000000
Si      -0.85568112       0.81164925      -2.09943332       0.00000000
Si       2.11045095       1.07727399       0.61490037       0.00000000
Si      -1.77425793      -3.24467478      -0.03738402       0.00000000
Si      -1.86398325       2.79362097       1.62632496       0.00000000
Si      -0.63146556      -0.94198554      -3.55504590       0.00000000
Si       2.47541211       0.56405754       2.89594260       0.00000000
Si       0.33306534       2.60830593      -2.96228126       0.00000000
Si      -1.35058761      -0.13356171       3.73734013       0.00000000
