10
Lattice="16.28999089631971 0.0 0.0 0.0 16.28999089631971 0.0 0.0 0.0 34.26581377546328" Properties=species:S:1:pos:R:3:initial_magmoms:R:1 pbc="T T T"
Si      -0.93462246      -1.68990831       1.44023549       0.00000000
Si       1.69073163       0.91937502       1.47969945       0.00000000
Si      -1.79488107       1.80558360       0.19377329       0.00000000
Si      -0.64733202      -0.41668191      -2.82610884       0.00000000
Si      -2.26145925      -0.41422212       2.93302650       0.00000000
Si       0.44942481       2.30247747       2.93210475       0.00000000
Si      -2.47469535      -2.87363745       0.07216384       0.00000000
Si      -3.54424788       0.85271634       1.43835429       0.00000000
Si       2.80327184       2.72774421       0.29286806       0.00000000
Si      -0.82683153       3.59704377       1.43994423       0.00000000
