10
Lattice="16.28999089631971 0.0 0.0 0.0 16.28999089631971 0.0 0.0 0.0 34.26581377546328" Properties=species:S:1:pos:R:3:initial_magmoms:R:1 pbc="T T T"
Si      -1.90272901      -0.59912991       1.35624167       0.00000000
Si       1.08261711       1.71142740       1.33228985       0.00000000
Si      -1.32249876       1.64595789      -1.47857069       0.00000000
Si       1.73180619      -1.43843958      -1.56951221       0.00000000
Si       0.54291312      -2.10352770       2.28340657       0.00000000
Si       3.33229869       1.08621720       0.81806250       0.00000000
Si      -2.55930170       0.11603367      -2.79204860       0.00000000
Si       0.10867059      -2.59058241      -2.88110550       0.00000000
Si       0.57560715       3.93286212       0.53656868       0.00000000
Si      -3.36060161      -1.74806361      -1.46846227       0.00000000
