10
Lattice="16.28999089631971 0.0 0.0 0.0 16.28999089631971 0.0 0.0 0.0 34.26581377546328" Properties=species:S:1:pos:R:3:initial_magmoms:R:1 pbc="T T T"
Si       1.84888242       0.90215649       1.27242744       0.00000000
Si      -1.59917301       1.49679036      -1.03835754       0.00000000
Si      -1.04554107      -0.96342318       2.05783460       0.00000000
Si      -0.51344451      -1.81819206      -1.67929994       0.00000000
Si       0.44070966       2.19061404       2.65059924       0.00000000
Si       0.38379240      -2.78831043       2.41957899       0.00000000
Si       3.38941699      -0.95358402       1.18199991       0.00000000
Si      -3.68864244       0.89264313       0.10314016       0.00000000
Si      -1.33907058       0.95369805       3.43723997       0.00000000
Si       1.51725060      -3.07690407      -1.70517064       0.00000000
