10
Lattice="16.28999089631971 0.0 0.0 0.0 16.28999089631971 0.0 0.0 0.0 34.26581377546328" Properties=species:S:1:pos:R:3:initial_magmoms:R:1 pbc="T T T"
Si      -0.63096057      -1.25120232       1.80467862       0.00000000
Si       0.35131014       2.26743768       0.16420187       0.00000000
Si      -1.67655051       0.02764413      -1.59517732       0.00000000
Si       2.22174327      -0.63548919      -0.25956368       0.00000000
Si      -0.26837775      -1.26081342      -2.97334912       0.00000000
Si       0.03648960       0.30574701       3.49353873       0.00000000
Si       3.13332353       0.57052467       1.57725629       0.00000000
Si       0.67153896       2.86345620      -2.09062700       0.00000000
Si       0.94837026       0.82269387      -3.39749160       0.00000000
Si      -2.98307367      -1.34513046       1.55649119       0.00000000
