10
Lattice="16.28999089631971 0.0 0.0 0.0 16.28999089631971 0.0 0.0 0.0 34.26581377546328" Properties=species:S:1:pos:R:3:initial_magmoms:R:1 pbc="T T T"
Si       1.34438171       1.33817463      -1.38071090       0.00000000
Si       1.35389705      -1.35883035       1.35692698       0.00000000
Si      -1.35985662       1.35557235       1.35634446       0.00000000
Si      -1.34519562      -1.36270737      -1.38888330       0.00000000
Si       2.56359544      -0.21354561      -2.79246664       0.00000000
Si      -2.63570571       0.07921827      -2.78681621       0.00000000
Si       2.71227427      -0.00184077       2.71450502       0.00000000
Si       2.71357258       2.71386513      -0.00339232       0.00000000
Si      -0.00304623       2.71322982       2.71505327       0.00000000
Si      -0.00249237      -2.71748151       2.71440222       0.00000000
