10
Lattice="16.28999089631971 0.0 0.0 0.0 16.28999089631971 0.0 0.0 0.0 34.26581377546328" Properties=species:S:1:pos:R:3:initial_magmoms:R:1 pbc="T T T"
Si      -1.35656604       1.35638685       1.35706405       0.00000000
Si       1.35728280      -1.35752715       1.35737244       0.00000000
Si      -1.35769005      -1.35695700      -1.35771510       0.00000000
Si       1.35832536       1.35681039      -1.35833188       0.00000000
Si      -0.00052128       2.71308321       2.71347704       0.00000000
Si      -2.71407690      -0.00063531       2.71323718       0.00000000
Si       2.71430496       0.00017919       2.71388823       0.00000000
Si       0.00128691      -2.71495656       2.71412809       0.00000000
Si       2.71513575       2.71446786       0.00037692       0.00000000
Si      -2.71451673       2.71511946      -0.00054825       0.00000000
