10
Lattice="16.28999089631971 0.0 0.0 0.0 16.28999089631971 0.0 0.0 0.0 34.26581377546328" Properties=species:S:1:pos:R:3:initial_magmoms:R:1 pbc="T T T"
Si       2.02543344      -1.08470223       0.19034670       0.00000000
Si      -0.28404873       1.63470217      -1.63472009       0.00000000
Si      -0.72397647       0.93284685       2.01962819       0.00000000
Si      -1.34664543      -1.92409335      -0.12626959       0.00000000
Si       1.70520462      -1.68072075       2.44517557       0.00000000
Si      -3.04481277       0.97353927       1.46894199       0.00000000
Si       0.93133188       0.72770688      -3.39163214       0.00000000
Si       3.54249900       0.76740561       0.27676513       0.00000000
Si      -0.18860562      -0.83113209       3.54140810       0.00000000
Si      -3.09322665      -1.38298842       1.42552718       0.00000000
