10
Lattice="16.28999089631971 0.0 0.0 0.0 16.28999089631971 0.0 0.0 0.0 34.26581377546328" Properties=species:S:1:pos:R:3:initial_magmoms:R:1 pbc="T T T"
Si      -0.13554909      -1.04135454       2.07839410       0.00000000
Si      -2.25316927       0.54833769      -0.31856945       0.00000000
Si       0.85581144       2.21939847      -0.22516079       0.00000000
Si       0.32897655      -1.60751349      -1.79590657       0.00000000
Si      -2.11666558      -0.10311570      -2.72307148       0.00000000
Si      -0.70195239       0.90836298       3.33255785       0.00000000
Si       0.86868054       2.20744161      -2.74702329       0.00000000
Si      -3.32733743      -1.53160209      -0.34790100       0.00000000
Si       2.68814322      -2.06713584      -1.56351569       0.00000000
Si       1.95541902      -1.99018188       2.52295901       0.00000000
