10
Lattice="16.28999089631971 0.0 0.0 0.0 16.28999089631971 0.0 0.0 0.0 34.26581377546328" Properties=species:S:1:pos:R:3:initial_magmoms:R:1 pbc="T T T"
Si       2.35916667      -0.45962235       0.23239088       0.00000000
Si      -0.32897655       1.60751349       1.79590657       0.00000000
Si      -1.06758144      -2.19633183       0.16999280       0.00000000
Si      -2.44564213       1.50439779      -0.92716491       0.00000000
Si      -0.54291312       2.10352770      -2.28340657       0.00000000
Si      -2.58214582       2.15585118       1.47733712       0.00000000
Si       2.45482155      -1.51356906       2.37263480       0.00000000
Si       3.40969248       1.70585622       0.44459918       0.00000000
Si      -3.65631398       0.07591140       1.44800557       0.00000000
Si      -0.46452564       0.56615895       3.87430067       0.00000000
