10
Lattice="16.28999089631971 0.0 0.0 0.0 16.28999089631971 0.0 0.0 0.0 34.26581377546328" Properties=species:S:1:pos:R:3:initial_magmoms:R:1 pbc="T T T"
Si       0.80253337      -2.16999090       0.22629156       0.00000000
Si      -0.13866716       0.18955044      -2.34433123       0.00000000
Si       1.88854531       1.36578618       0.63131371       0.00000000
Si      -2.19611421       0.45331812       0.94279013       0.00000000
Si      -1.62138672       2.07827820      -2.38620407       0.00000000
Si      -0.41532399      -3.39596001      -1.31988562       0.00000000
Si      -1.83115305      -0.05989833       3.22383236       0.00000000
Si      -2.21097069       2.79249696       1.07245204       0.00000000
Si       3.20669953      -1.98765693       0.19702854       0.00000000
Si      -0.65097513      -1.98021240      -3.16092029       0.00000000
