10
Lattice="16.28999089631971 0.0 0.0 0.0 16.28999089631971 0.0 0.0 0.0 34.26581377546328" Properties=species:S:1:pos:R:3:initial_magmoms:R:1 pbc="T T T"
Si      -0.29005974       2.27094003      -0.22711394       0.00000000
Si       0.11334582      -0.32280264      -2.38473064       0.00000000
Si       1.97820873      -0.39229578       1.49765676       0.00000000
Si       1.95546789      -1.73475468      -1.94763568       0.00000000
Si       0.58349151      -1.64721222       2.99772039       0.00000000
Si      -0.97621083      -3.31973910      -0.40324032       0.00000000
Si      -1.11467583      -2.79588528       1.87964888       0.00000000
Si       1.97758971       2.97038376      -0.32124218       0.00000000
Si      -1.34801379      -2.18157309      -2.55982905       0.00000000
Si      -1.28534616       2.84389191       1.89263700       0.00000000
