10
Lattice="16.28999089631971 0.0 0.0 0.0 16.28999089631971 0.0 0.0 0.0 34.26581377546328" Properties=species:S:1:pos:R:3:initial_magmoms:R:1 pbc="T T T"
Si      -1.35701401       1.35707103      -1.35702978       0.00000000
Si       1.35743171      -1.35725022      -1.35668712       0.00000000
Si       1.35847427       1.35731538       1.35785216       0.00000000
Si      -1.35799141      -1.35742941       1.35874307       0.00000000
Si      -2.71362892      -0.00087966      -2.71388823       0.00000000
Si      -0.00038205      -2.71337643      -2.71471061       0.00000000
Si       2.71521624      -0.00003258      -2.71313439       0.00000000
Si      -2.71459003      -2.71484253      -0.00006853       0.00000000
Si       2.71498818       2.71510317       0.00037692       0.00000000
Si       2.71565607      -0.00360009       2.71447075       0.00000000
