10
Lattice="16.28999089631971 0.0 0.0 0.0 16.28999089631971 0.0 0.0 0.0 34.26581377546328" Properties=species:S:1:pos:R:3:initial_magmoms:R:1 pbc="T T T"
Si      -1.35538339       1.35211887      -1.36045636       0.00000000
Si       1.35431802      -1.35436689      -1.35990811       0.00000000
Si       1.35747828       1.35739683       1.35651579       0.00000000
Si      -1.35778453      -1.35721764       1.35644726       0.00000000
Si       2.71305063       2.71415835      -0.00133637       0.00000000
Si      -2.71521624       0.00003258       2.71313439       0.00000000
Si      -0.00016290      -2.71523349       2.71327145       0.00000000
Si      -0.00022806       2.71513575       2.71351131       0.00000000
Si       2.71406061      -2.71464705      -0.00157623       0.00000000
Si       2.71156824      -0.01521486      -2.71730111       0.00000000
