10
Lattice="16.28999089631971 0.0 0.0 0.0 16.28999089631971 0.0 0.0 0.0 34.26581377546328" Properties=species:S:1:pos:R:3:initial_magmoms:R:1 pbc="T T T"
Si       1.35651391       1.35778779      -1.35747524       0.00000000
Si      -1.35847427      -1.35731538      -1.35785216       0.00000000
Si       1.35718180      -1.36091547       1.35661859       0.00000000
Si      -1.35882450       1.35990549       1.36134728       0.00000000
Si       2.70221452       0.01210347       2.70336862       0.00000000
Si       2.71366639      -2.71456560      -0.00113077       0.00000000
Si       2.71379671       2.71476108       0.00082238       0.00000000
Si       2.71422025       0.00004887      -2.71447075       0.00000000
Si      -0.00104256      -2.71456560      -2.71453928       0.00000000
Si      -0.00072165       2.71539639      -2.71477915       0.00000000
