10
Lattice="16.28999089631971 0.0 0.0 0.0 16.28999089631971 0.0 0.0 0.0 34.26581377546328" Properties=species:S:1:pos:R:3:initial_magmoms:R:1 pbc="T T T"
Si       1.35393195      -1.38556224       1.29075966       0.00000000
Si      -1.33978964      -1.37057544      -1.37358018       0.00000000
Si       1.37224191       1.34436483      -1.37275780       0.00000000
Si      -1.45031729       1.33035543       1.52739950       0.00000000
Si      -2.68889486       2.67696828      -0.02018258       0.00000000
Si      -0.06464524      -2.63438622       2.75987298       0.00000000
Si       2.74431603      -0.14978655       2.65018805       0.00000000
Si      -2.69783807      -0.01430262      -2.73564704       0.00000000
Si       0.01897622       2.70088200      -2.73472186       0.00000000
Si       2.72124939      -2.71837746      -0.03155883       0.00000000
