10
Lattice="16.28999089631971 0.0 0.0 0.0 16.28999089631971 0.0 0.0 0.0 34.26581377546328" Properties=species:S:1:pos:R:3:initial_magmoms:R:1 pbc="T T T"
Si      -1.40994837       1.75516605       0.70299783       0.00000000
Si       2.17795671       0.73368531       0.60996609       0.00000000
Si      -0.85581144      -2.21939847       0.22516079       0.00000000
Si       0.01286910      -0.01195686      -2.52186251       0.00000000
Si       2.52364680       1.33547049      -1.69667272       0.00000000
Si      -3.10898071      -1.67106078      -0.09340866       0.00000000
Si      -2.15939426       0.81000396       2.71080431       0.00000000
Si       3.15340191      -1.31180112       1.25707635       0.00000000
Si       0.06576273       3.51530055       1.29250722       0.00000000
Si       2.88285759      -2.12105574      -1.12614660       0.00000000
