10
Lattice="16.28999089631971 0.0 0.0 0.0 16.28999089631971 0.0 0.0 0.0 34.26581377546328" Properties=species:S:1:pos:R:3:initial_magmoms:R:1 pbc="T T T"
Si       1.81138773      -1.51982442       0.26209734       0.00000000
Si      -1.81871564      -0.65052486       1.40917351       0.00000000
Si       0.67084175       1.91630673       1.46545514       0.00000000
Si      -0.51831864      -0.69949260      -2.43232588       0.00000000
Si      -0.54245930      -1.94509116       2.90133403       0.00000000
Si       0.69884752      -3.32819361       1.44892873       0.00000000
Si       2.19910602       0.77266728       2.88421139       0.00000000
Si      -2.78676518      -2.44198503       0.16300257       0.00000000
Si      -1.53957020       1.12039362      -3.43371059       0.00000000
Si       2.80667415      -2.09277630      -1.85765360       0.00000000
