10
Lattice="16.290000149 0.0 0.0 0.0 16.290000149 0.0 0.0 0.0 29.1751946751" Properties=species:S:1:pos:R:3:initial_magmoms:R:1 pbc="T T T"
Si       1.61310097      -0.17469396      -1.67996606       0.00000000
Si      -0.43355835       2.28945201      -0.30132141       0.00000000
Si       0.24949764      -0.51494319       2.29944238       0.00000000
Si      -1.89568361      -1.30464982      -0.63123451       0.00000000
H        1.32279688      -2.21961026       1.49032729       0.00000000
H       -2.78179446      -0.45628290      -1.52002764       0.00000000
Si      -1.49608990       1.02679129       2.75129380       0.00000000
Si       0.05224203      -0.95550625      -3.27176468       0.00000000
Si      -2.32832972       2.27223185       1.03802425       0.00000000
Si      -0.86309308      -2.79319746      -2.10061402       0.00000000
