10
Lattice="16.290000149 0.0 0.0 0.0 16.290000149 0.0 0.0 0.0 29.1751946751" Properties=species:S:1:pos:R:3:initial_magmoms:R:1 pbc="T T T"
Si      -1.36129015      -1.31484736       1.39475811       0.00000000
Si       1.34087878       1.36925596       1.36246117       0.00000000
Si      -1.37253025       1.34674318      -1.36479227       0.00000000
Si       1.42185637      -1.37687968      -1.29801900       0.00000000
Si      -2.50136210      -0.18295299      -2.79354531       0.00000000
Si      -2.68491782      -2.66031992       0.00696120       0.00000000
Si       2.68172498      -0.00876402      -2.72282464       0.00000000
Si       2.70482420       2.71982729       0.00953737       0.00000000
Si      -0.00853596      -2.68179014       2.75163806       0.00000000
Si       2.79709077      -2.64116288       0.11937031       0.00000000
