10
Lattice="16.290000149 0.0 0.0 0.0 16.290000149 0.0 0.0 0.0 29.1751946751" Properties=species:S:1:pos:R:3:initial_magmoms:R:1 pbc="T T T"
Si       1.14794002       0.12678507      -2.05979792       0.00000000
Si       1.56085894       0.78081229       1.59179862       0.00000000
Si      -0.91533511      -1.83769121       1.17115066       0.00000000
Si      -1.93082114       1.49322286      -0.31608406       0.00000000
Si      -1.94792564      -0.34914357       2.64053017       0.00000000
H       -2.83403649       0.49922334       1.75173704       0.00000000
H        1.83060506      -2.85617460      -0.13061735       0.00000000
Si      -0.05224203       0.95550625       3.27176468       0.00000000
Si       2.39673143       2.70961184       0.57197969       0.00000000
Si       2.67408497       1.97240951      -1.63506544       0.00000000
