10
Lattice="16.290000149 0.0 0.0 0.0 16.290000149 0.0 0.0 0.0 29.1751946751" Properties=species:S:1:pos:R:3:initial_magmoms:R:1 pbc="T T T"
Si       1.34793887      -1.33604065       1.37514363       0.00000000
Si      -1.27183720       1.36093177       1.42267002       0.00000000
Si       1.34202560       1.36832743      -1.36303592       0.00000000
Si      -1.37926780      -1.36174627      -1.33351062       0.00000000
Si       2.66130384       0.13062951       2.65465096       0.00000000
Si       0.01711427      -2.69904451      -2.68166719       0.00000000
Si      -2.66329448       2.71682993       0.07241283       0.00000000
Si      -2.68333118       0.01910817      -2.70815827       0.00000000
Si      -0.06168046      -2.63078615       2.76329939       0.00000000
Si       2.71996413       0.02254536      -2.72047020       0.00000000
