10
Lattice="16.290000149 0.0 0.0 0.0 16.290000149 0.0 0.0 0.0 29.1751946751" Properties=species:S:1:pos:R:3:initial_magmoms:R:1 pbc="T T T"
Si       1.67573603      -1.68091625      -0.25324069       0.00000000
Si      -1.86326651      -0.84084094      -1.25158668       0.00000000
Si      -0.63340408       0.32951412       2.32911414       0.00000000
Si       0.69183631       1.86271265      -1.41855632       0.00000000
H        2.21449520       0.77946022       1.11895624       0.00000000
H       -1.06461667       2.50108517       0.11763438       0.00000000
H       -2.61472421      -0.29077650       1.24566411       0.00000000
H        0.58723822      -1.63194850       2.53972987       0.00000000
H       -0.49415715       2.37568475      -2.21646871       0.00000000
H       -3.26316396       0.13574457       1.20376853       0.00000000
