10
Lattice="16.290000149 0.0 0.0 0.0 16.290000149 0.0 0.0 0.0 29.1751946751" Properties=species:S:1:pos:R:3:initial_magmoms:R:1 pbc="T T T"
Si      -1.37014540       1.34237746      -1.35714253       0.00000000
Si      -1.33131167      -1.39794265       1.34182555       0.00000000
Si       1.29868768      -1.35793441      -1.41741848       0.00000000
Si       1.35646831       1.38178297       1.35054894       0.00000000
Si       2.77601151       0.00887805       2.60336097       0.00000000
Si      -2.73644309      -0.07962552       2.65465096       0.00000000
Si       2.60929964      -2.78537826      -0.12078531       0.00000000
Si      -0.01001835       2.69273702      -2.71060899       0.00000000
Si      -2.70858078       2.70541064       0.01566708       0.00000000
Si       0.03899826      -2.63699264       2.78623109       0.00000000
