10
Lattice="16.290000149 0.0 0.0 0.0 16.290000149 0.0 0.0 0.0 29.1751946751" Properties=species:S:1:pos:R:3:initial_magmoms:R:1 pbc="T T T"
Si       1.74679301       0.32181710      -1.49260296       0.00000000
Si      -1.91840816       1.05981438      -0.77827749       0.00000000
Si       0.63879607       0.67665403       2.14647742       0.00000000
Si      -0.04297302      -2.14501183       0.98014067       0.00000000
Si       1.86403214      -1.98344761      -1.72763833       0.00000000
Si      -0.60435901      -1.10981490       2.98984478       0.00000000
H        1.32677164       2.98742964       0.00767308       0.00000000
Si      -0.75654019       2.49969075      -2.28193785       0.00000000
Si      -2.89250130       1.46335352       1.37391827       0.00000000
Si       2.15098049      -2.86889057       0.51371683       0.00000000
