10
Lattice="16.290000149 0.0 0.0 0.0 16.290000149 0.0 0.0 0.0 29.1751946751" Properties=species:S:1:pos:R:3:initial_magmoms:R:1 pbc="T T T"
Si      -1.42731352       1.31815423      -1.29082731       0.00000000
Si      -1.37642356      -1.32110272       1.36032263       0.00000000
Si       1.34271955       1.40326948       1.33231444       0.00000000
Si       1.34198650      -1.28348911      -1.45549211       0.00000000
Si      -0.07327242       2.66102039      -2.60550243       0.00000000
Si       2.69353523      -2.61915509      -0.04492980       0.00000000
Si      -0.01625742      -2.69070077       2.69526283       0.00000000
Si      -2.74427859      -2.64772775      -0.00816905       0.00000000
Si       2.70612740       0.06260247       2.69482521       0.00000000
Si      -2.74333377       0.05952366       2.68149214       0.00000000
