10
Lattice="16.290000149 0.0 0.0 0.0 16.290000149 0.0 0.0 0.0 29.1751946751" Properties=species:S:1:pos:R:3:initial_magmoms:R:1 pbc="T T T"
Si       1.36340785      -1.34066701       1.36251077       0.00000000
Si       1.35534430       1.37311669      -1.34433462       0.00000000
Si      -1.35514882       1.35291709       1.36496148       0.00000000
Si      -1.34271955      -1.40326948      -1.33231444       0.00000000
Si       2.70739802      -2.67178808      -0.02406954       0.00000000
Si      -2.77003308      -0.08511525      -2.62314175       0.00000000
Si       0.01159848      -2.73207738       2.68977790       0.00000000
Si      -2.72373689       2.70034445       0.02176470       0.00000000
Si       0.01016496       2.71495658      -2.71422671       0.00000000
Si       2.71340903       2.72029970       0.02220232       0.00000000
