10
Lattice="16.290000149 0.0 0.0 0.0 16.290000149 0.0 0.0 0.0 29.1751946751" Properties=species:S:1:pos:R:3:initial_magmoms:R:1 pbc="T T T"
H       -0.90565885       0.75248398       0.96106009       0.00000000
Si       1.15505875       1.63714501      -1.18177044       0.00000000
Si       1.36805962      -1.14225481       1.51620569       0.00000000
Si      -1.58871484      -1.14126112      -1.33943319       0.00000000
H        2.40125517      -1.99910882      -1.27119241       0.00000000
Si      -0.61535476       2.79740028      -2.20923327       0.00000000
Si      -1.97895809       2.45715104       1.77017518       0.00000000
Si       2.62689610       0.43868970      -2.52452960       0.00000000
Si      -0.07719831      -2.34321878       2.91278433       0.00000000
Si      -2.22845573       2.97209424      -0.52926721       0.00000000
