10
Lattice="16.290000149 0.0 0.0 0.0 16.290000149 0.0 0.0 0.0 29.1751946751" Properties=species:S:1:pos:R:3:initial_magmoms:R:1 pbc="T T T"
Si       1.04285323      -1.11689780      -0.02033511       0.00000000
Si      -1.87072733       1.84469102      -0.72100659       0.00000000
Si      -0.33534594       2.56689189       0.89033942       0.00000000
H        1.20881575       2.15556938      -1.73814140       0.00000000
Si      -0.26305092       1.10237200       2.82071617       0.00000000
Si      -1.83967859      -0.58155138       2.37812847       0.00000000
Si       2.91374183      -0.22416832       1.10183040       0.00000000
Si      -1.24652710       0.77176645      -2.76881350       0.00000000
Si       1.32020677      -1.85410012      -2.22738024       0.00000000
Si       0.20698074      -3.04569734       0.99948382       0.00000000
