10
Lattice="16.290000149 0.0 0.0 0.0 16.290000149 0.0 0.0 0.0 29.1751946751" Properties=species:S:1:pos:R:3:initial_magmoms:R:1 pbc="T T T"
Si       0.61550137       0.51494319      -2.18172106       0.00000000
Si      -2.30083220      -0.06271650       0.45107768       0.00000000
Si       0.77009347       2.04595886       0.87919449       0.00000000
Si       1.22222242      -1.87034777       0.95181155       0.00000000
Si       1.69717367       1.00229113       2.71343898       0.00000000
Si       3.03168306      -0.54284796       1.55635076       0.00000000
Si       1.30368871      -1.53447566      -2.94821177       0.00000000
Si      -0.24092910      -0.02647125       3.61541930       0.00000000
Si      -2.44488467       0.35222238       2.80957125       0.00000000
Si      -3.16177500       2.01435626      -0.34382967       0.00000000
