10
Lattice="16.290000149 0.0 0.0 0.0 16.290000149 0.0 0.0 0.0 29.1751946751" Properties=species:S:1:pos:R:3:initial_magmoms:R:1 pbc="T T T"
Si       1.46391715      -1.17709912      -1.34898573       0.00000000
Si      -1.33837012      -1.44775747       1.25609074       0.00000000
Si      -1.36222520       1.24152607      -1.45296612       0.00000000
Si       1.41933142       1.36340785       1.28251763       0.00000000
Si       0.08707005      -2.51208092      -2.68392594       0.00000000
Si      -2.70817994       0.00545715       2.53400511       0.00000000
Si      -2.53088659       2.83404691      -0.16429777       0.00000000
Si       0.09171270       2.67731039       2.70503011       0.00000000
Si       2.74932849      -0.03064149       2.65255852       0.00000000
Si       2.72349254      -2.68714955      -0.01597108       0.00000000
