10
Lattice="16.290000149 0.0 0.0 0.0 16.290000149 0.0 0.0 0.0 29.1751946751" Properties=species:S:1:pos:R:3:initial_magmoms:R:1 pbc="T T T"
Si      -1.83172907      -1.29409390       0.63138039       0.00000000
Si       1.82307908      -1.45582102      -0.16758232       0.00000000
Si      -1.03252537       0.82642429      -1.95249155       0.00000000
Si       0.65070406       1.77134204       1.58777244       0.00000000
H       -0.01117494      -1.13567365       3.11777800       0.00000000
Si      -2.55997352       2.09062604      -0.73854088       0.00000000
Si       3.44425989       0.23045463      -0.09373990       0.00000000
Si      -3.48327444       0.36000900       0.53877832       0.00000000
Si      -1.36674730      -1.71328448       2.84341447       0.00000000
Si       2.88287391       1.26565156       1.91596421       0.00000000
