10
Lattice="16.290000149 0.0 0.0 0.0 16.290000149 0.0 0.0 0.0 29.1751946751" Properties=species:S:1:pos:R:3:initial_magmoms:R:1 pbc="T T T"
Si      -1.32761872       1.31390254       1.42251247       0.00000000
Si      -1.41933142      -1.36340785      -1.28251763       0.00000000
Si       1.32999706      -1.39404934       1.37004088       0.00000000
Si       1.33718095       1.36751717      -1.40416127       0.00000000
Si       0.04458573      -2.54050697      -2.63150336       0.00000000
Si       2.63503784       2.65264082       0.10078863       0.00000000
Si      -2.60632998       2.68670321       0.03586215       0.00000000
Si      -2.73993078      -0.07073118       2.68456721       0.00000000
Si       2.66691737      -0.06854832       2.77585639       0.00000000
Si       2.71215470      -2.75128329       0.04676492       0.00000000
