10
Lattice="16.290000149 0.0 0.0 0.0 16.290000149 0.0 0.0 0.0 29.1751946751" Properties=species:S:1:pos:R:3:initial_magmoms:R:1 pbc="T T T"
Si       1.39545028       1.43413903      -1.17371808       0.00000000
Si       1.70023619      -1.59718564       0.01560873       0.00000000
Si      -0.95503384       1.26974035       1.75509219       0.00000000
Si      -1.59270589      -0.80971075      -1.56402384       0.00000000
Si      -2.06697296       1.22297176      -2.61864877       0.00000000
Si      -0.16666299       2.71805168      -2.29891781       0.00000000
Si       0.62988544      -3.35552826      -1.04911083       0.00000000
Si      -2.40308453       2.68775228       0.53670688       0.00000000
Si      -0.29719476      -2.31186053      -2.88335531       0.00000000
Si       2.35673948      -2.01763055       2.14671666       0.00000000
