10
Lattice="16.290000149 0.0 0.0 0.0 16.290000149 0.0 0.0 0.0 29.1751946751" Properties=species:S:1:pos:R:3:initial_magmoms:R:1 pbc="T T T"
Si      -1.14794002      -0.12678507       2.05979792       0.00000000
Si      -1.52661736       0.99714349      -1.50529417       0.00000000
Si       1.00128115      -1.76785598      -1.26395696       0.00000000
Si       1.52614495       1.84562444       0.42473248       0.00000000
H       -2.05570028      -2.79974604      -0.90618155       0.00000000
H        0.68266504      -2.98295967       1.92918057       0.00000000
Si       2.29695518      -0.46924974      -2.76420382       0.00000000
Si      -2.55650375       2.62086066      -0.18812166       0.00000000
Si      -0.23693805       2.43602568      -2.78628944       0.00000000
Si       0.41291892       0.65402722       3.65159654       0.00000000
