10
Lattice="16.290000149 0.0 0.0 0.0 16.290000149 0.0 0.0 0.0 29.1751946751" Properties=species:S:1:pos:R:3:initial_magmoms:R:1 pbc="T T T"
Si      -2.23216985       0.50569047      -0.32819176       0.00000000
Si       0.89050915      -1.42074865       1.59299480       0.00000000
Si       0.56138599      -1.03519693      -2.00970411       0.00000000
Si       1.24315507       1.78646893      -0.84336735       0.00000000
H       -0.01656693      -1.49532427       2.81100083       0.00000000
Si       0.60435901       1.10981490      -2.98984478       0.00000000
Si       2.77785228      -0.07916940       1.97950778       0.00000000
Si       3.30010968       1.17525346       0.04767227       0.00000000
Si       1.16168878       1.45059682       3.05665597       0.00000000
Si      -1.05979483      -2.72147258      -2.08354653       0.00000000
