10
Lattice="16.290000149 0.0 0.0 0.0 16.290000149 0.0 0.0 0.0 29.1751946751" Properties=species:S:1:pos:R:3:initial_magmoms:R:1 pbc="T T T"
Si      -1.43376436       1.34653141      -1.26206057       0.00000000
Si      -1.37987704      -1.34400646       1.33502773       0.00000000
Si       1.34672689       1.38796503       1.33925814       0.00000000
Si       1.35402481      -1.32939433      -1.40096367       0.00000000
Si      -0.09980883       2.68618844      -2.59131745       0.00000000
Si      -0.01128897      -2.69143382       2.67822452       0.00000000
Si       2.69920415      -2.67123422      -0.03107158       0.00000000
Si       2.70578531       0.03608235       2.69424170       0.00000000
Si      -0.07213212      -2.78660001      -2.62455383       0.00000000
Si      -2.73049725       0.03227049       2.68408873       0.00000000
