10
Lattice="16.290000149 0.0 0.0 0.0 16.290000149 0.0 0.0 0.0 29.1751946751" Properties=species:S:1:pos:R:3:initial_magmoms:R:1 pbc="T T T"
Si       1.35905842      -1.35188268       1.35498357       0.00000000
Si      -1.36285399       1.36199877       1.34593926       0.00000000
Si       1.34967538       1.38715053      -1.33642814       0.00000000
Si      -1.34672689      -1.38796503      -1.33925814       0.00000000
Si      -2.78049126      -0.04143362      -2.60131871       0.00000000
Si      -0.00021177      -2.71661002       2.69657572       0.00000000
Si       2.79205716       0.05469530      -2.61902805       0.00000000
Si      -0.00309510       2.70501154       2.71005466       0.00000000
Si       2.71054199      -2.71201624      -0.00379278       0.00000000
Si      -0.02730204       2.72793157      -2.69491273       0.00000000
