10
Lattice="16.290000149 0.0 0.0 0.0 16.290000149 0.0 0.0 0.0 29.1751946751" Properties=species:S:1:pos:R:3:initial_magmoms:R:1 pbc="T T T"
Si       1.21771270      -1.28449909      -1.60600694       0.00000000
Si      -1.28777403       1.34798122      -1.50155974       0.00000000
Si      -1.43959683      -1.42148170       1.34669781       0.00000000
Si       1.31652132       1.70092037       1.13544023       0.00000000
H        2.83193442       0.23216508       0.50613128       0.00000000
H        0.18030522       2.66784590       1.42620022       0.00000000
H       -0.97792194       0.84981673       3.35503069       0.00000000
Si      -2.62961393      -2.56945153      -0.34523008       0.00000000
Si       3.44495971      -1.07355499       0.94658919       0.00000000
Si       2.59786341      -2.73489555      -0.44923965       0.00000000
