10
Lattice="16.290000149 0.0 0.0 0.0 16.290000149 0.0 0.0 0.0 29.1751946751" Properties=species:S:1:pos:R:3:initial_magmoms:R:1 pbc="T T T"
Si      -1.36428751      -1.34777923       1.35016966       0.00000000
Si      -1.36278883       1.36560700      -1.33584464       0.00000000
Si       1.35975889       1.34301277       1.36411540       0.00000000
Si       1.36285399      -1.36199877      -1.34593926       0.00000000
Si       0.00987174      -2.69381216       2.68770646       0.00000000
Si       2.71252937       0.02515176      -2.68236740       0.00000000
Si       0.00804726       2.72372060      -2.67381907       0.00000000
Si      -2.74835109       0.01521486      -2.66063188       0.00000000
Si      -0.00053757       2.69477327       2.71691083       0.00000000
Si      -2.71437014      -2.71769330      -0.00110866       0.00000000
