10
Lattice="16.290000149 0.0 0.0 0.0 16.290000149 0.0 0.0 0.0 29.1751946751" Properties=species:S:1:pos:R:3:initial_magmoms:R:1 pbc="T T T"
Si       1.36012705       1.35035956      -1.35346646       0.00000000
Si       1.37014540      -1.34237746       1.35714253       0.00000000
Si      -1.33843538       1.36303318       1.37280961       0.00000000
Si      -1.34821580      -1.37826433      -1.35145337       0.00000000
Si      -2.68837782      -0.04742019       2.67746597       0.00000000
Si       2.66883308      -2.70031187      -0.06027595       0.00000000
Si      -0.02878932       2.69948108      -2.68362193       0.00000000
Si      -2.69103309      -0.02026476      -2.72041185       0.00000000
Si       2.67828128      -0.01251072      -2.74424799       0.00000000
Si       2.72661371       0.03940551       2.70769147       0.00000000
