10
Lattice="16.290000149 0.0 0.0 0.0 16.290000149 0.0 0.0 0.0 29.1751946751" Properties=species:S:1:pos:R:3:initial_magmoms:R:1 pbc="T T T"
Si       1.35927019       1.36472734      -1.34159215       0.00000000
Si      -1.35277048       1.38479662       1.33707000       0.00000000
Si       1.38771253      -1.34312680       1.34617266       0.00000000
Si      -1.35780409      -1.36278883      -1.35760933       0.00000000
Si      -2.70765866       0.02963151       2.67104742       0.00000000
Si       0.05010804      -2.79065622       2.60225231       0.00000000
Si       2.71075376       0.00459378      -2.70036849       0.00000000
Si       2.69223203       2.71868048       0.04093280       0.00000000
Si       0.00021177       2.71661002      -2.69657572       0.00000000
Si      -2.72639216      -0.01536147      -2.70080612       0.00000000
