10
Lattice="16.290000149 0.0 0.0 0.0 16.290000149 0.0 0.0 0.0 29.1751946751" Properties=species:S:1:pos:R:3:initial_magmoms:R:1 pbc="T T T"
Si      -1.37030993       1.23904999      -1.44440554       0.00000000
Si       1.19853676      -1.40224321      -1.47501032       0.00000000
Si      -1.36746895      -1.42772077       1.29960905       0.00000000
Si       1.43488837       1.40910130       1.31728921       0.00000000
Si      -0.07167600       2.74281249       2.56435374       0.00000000
Si       2.55362042      -2.75996586      -0.17125839       0.00000000
Si       0.06243957      -2.64288962       2.68236740       0.00000000
Si      -2.77544136       2.55736712      -0.13158013       0.00000000
Si       2.73701325       2.64587069      -0.18287012       0.00000000
Si      -0.03899826       2.63699264      -2.78623109       0.00000000
