10
Lattice="16.290000149 0.0 0.0 0.0 16.290000149 0.0 0.0 0.0 29.1751946751" Properties=species:S:1:pos:R:3:initial_magmoms:R:1 pbc="T T T"
Si       1.43873923      -1.34959393       1.28674279       0.00000000
Si      -1.25781607      -1.36774099      -1.45552129       0.00000000
Si       1.37872045       1.32685309      -1.38949782       0.00000000
Si      -1.42991992       1.28190898       1.41213777       0.00000000
Si       0.08879679      -2.76004731       2.59139914       0.00000000
Si      -2.69117318       2.67386017      -0.01835120       0.00000000
Si      -0.03005505       2.69862260       2.66999712       0.00000000
Si      -2.59542056      -2.81527041      -0.19944163       0.00000000
Si      -2.72749988      -0.30817422       2.68802739       0.00000000
Si       2.74926658       2.69885881      -0.05934235       0.00000000
