10
Lattice="16.290000149 0.0 0.0 0.0 16.290000149 0.0 0.0 0.0 29.1751946751" Properties=species:S:1:pos:R:3:initial_magmoms:R:1 pbc="T T T"
H        0.90614755      -0.89901253       0.80879475       0.00000000
Si       1.34648254       1.30950424      -1.39092741       0.00000000
Si      -1.14469831       1.42658047       1.46269839       0.00000000
Si      -1.31336497      -1.46667016      -1.27950734       0.00000000
H       -1.10876257      -1.24475149       2.22078664       0.00000000
Si      -2.57460683       2.64174932       0.07994003       0.00000000
Si      -0.49573728      -2.55047157       2.66124456       0.00000000
Si      -2.66130384      -0.13062951      -2.65465096       0.00000000
Si      -0.00860112       2.66722688      -2.69467933       0.00000000
Si       2.73341316       2.66176973      -0.09767855       0.00000000
