10
Lattice="16.290000149 0.0 0.0 0.0 16.290000149 0.0 0.0 0.0 29.1751946751" Properties=species:S:1:pos:R:3:initial_magmoms:R:1 pbc="T T T"
H        0.84416410       0.93387313       0.81048691       0.00000000
Si       1.42926832      -1.44396190      -1.12152366       0.00000000
Si      -1.29485953       1.29373552      -1.42698795       0.00000000
Si      -1.83150101      -0.82546318       1.16353594       0.00000000
H        1.65239246       0.18692775       2.46431199       0.00000000
H        2.28301094       1.84503800       1.35865964       0.00000000
Si      -2.37752552       2.71423982       0.07051645       0.00000000
Si       2.77865049      -0.05294250      -2.46685024       0.00000000
Si       0.06965604      -2.75208150      -2.51110901       0.00000000
Si      -1.20347263      -1.22914567       3.31182222       0.00000000
