10
Lattice="16.290000149 0.0 0.0 0.0 16.290000149 0.0 0.0 0.0 29.1751946751" Properties=species:S:1:pos:R:3:initial_magmoms:R:1 pbc="T T T"
Si      -0.84549988       1.84907792      -1.12549149       0.00000000
Si       1.71593975      -0.44535231      -1.52419970       0.00000000
Si       1.37982817       1.01942821       1.63115596       0.00000000
Si      -1.39238776      -1.75672991       0.89547425       0.00000000
H        1.11549034      -0.53854740      -2.92399636       0.00000000
H       -2.00567369      -1.17848377      -2.18735187       0.00000000
Si       2.19020681      -2.47803482      -0.46957476       0.00000000
Si       0.32606064      -3.38133162       0.80436012       0.00000000
Si       2.64329687       2.50499477       0.30561016       0.00000000
Si      -2.56486052       2.61614144       0.26333531       0.00000000
