10
Lattice="16.290000149 0.0 0.0 0.0 16.290000149 0.0 0.0 0.0 29.1751946751" Properties=species:S:1:pos:R:3:initial_magmoms:R:1 pbc="T T T"
Si      -1.26995212      -0.56409013      -0.93255592       0.00000000
Si       1.20451519       0.51528528       1.05561689       0.00000000
Si      -0.03508866      -2.41250015      -1.59652500       0.00000000
Si      -0.32275377       1.80333560       2.24348494       0.00000000
Si       2.88582240       1.24480036      -0.39902914       0.00000000
Si      -3.05530356      -1.15193107       0.50823189       0.00000000
Si      -2.29399040       0.77092426      -2.55169170       0.00000000
Si       2.35100540      -0.98541469       2.42314463       0.00000000
Si      -1.79637977       3.00491859       0.78705923       0.00000000
H       -0.30952629       0.67810384      -3.62306320       0.00000000
