10
Lattice="16.290000149 0.0 0.0 0.0 16.290000149 0.0 0.0 0.0 29.1751946751" Properties=species:S:1:pos:R:3:initial_magmoms:R:1 pbc="T T T"
Si       1.29352375       1.43640334       1.31337974       0.00000000
Si      -1.35496963       1.36653553      -1.33712835       0.00000000
Si      -1.30807072      -1.34712600       1.42272837       0.00000000
Si       1.42527727      -1.36199062      -1.29858791       0.00000000
Si       2.53420274       0.04733874       2.68613100       0.00000000
Si      -2.65194686      -2.69347007       0.03457261       0.00000000
Si       0.06351471      -2.70459614      -2.67606556       0.00000000
Si      -2.71054199      -0.00143352      -2.67469432       0.00000000
Si       0.02010186       2.70299972      -2.69902643       0.00000000
Si       2.76034053       0.00193851      -2.66798403       0.00000000
