10
Lattice="16.290000149 0.0 0.0 0.0 16.290000149 0.0 0.0 0.0 29.1751946751" Properties=species:S:1:pos:R:3:initial_magmoms:R:1 pbc="T T T"
Si      -1.36611199       1.35728281      -1.32895929       0.00000000
Si       1.34943103       1.36159966       1.34751472       0.00000000
Si      -1.37556019      -1.33051834       1.35501274       0.00000000
Si       1.37396377      -1.36505314      -1.33190599       0.00000000
Si       2.66936087      -0.07920198       2.62346268       0.00000000
Si       0.00215028       2.70150104      -2.67168928       0.00000000
Si      -2.70627401      -0.00565263      -2.69400830       0.00000000
Si       0.01044189      -2.72015309      -2.68087946       0.00000000
Si      -2.68426622       2.72015309       0.06182224       0.00000000
Si       2.73419508      -0.00164529      -2.67373154       0.00000000
