10
Lattice="16.290000149 0.0 0.0 0.0 16.290000149 0.0 0.0 0.0 29.1751946751" Properties=species:S:1:pos:R:3:initial_magmoms:R:1 pbc="T T T"
H       -0.64843975       0.42652107      -0.04189558       0.00000000
Si       1.98132014       0.62029063       1.08345003       0.00000000
H       -1.79893730      -1.20365182       1.08388766       0.00000000
Si       0.75145771      -0.55006444      -2.49725079       0.00000000
Si       0.20471643       2.17030043       1.71421774       0.00000000
Si      -2.51880869      -1.28337508      -0.24052030       0.00000000
Si      -0.90903088      -2.07357041      -1.76294031       0.00000000
Si       2.61472421       0.29077650      -1.24566411       0.00000000
Si       1.21749832      -1.24835158       2.36543726       0.00000000
Si      -0.73529803       1.25038783      -2.61462260       0.00000000
