10
Lattice="16.290000149 0.0 0.0 0.0 16.290000149 0.0 0.0 0.0 29.1751946751" Properties=species:S:1:pos:R:3:initial_magmoms:R:1 pbc="T T T"
Si      -1.40513143       1.31831713       1.31282541       0.00000000
Si       1.37030993      -1.23904999       1.44440554       0.00000000
Si       1.33131167       1.39794265      -1.34182555       0.00000000
Si      -1.39151299      -1.37533213      -1.31183345       0.00000000
Si       2.56884669      -2.64129320      -0.03060478       0.00000000
Si      -0.11761706       2.72847729       2.63166091       0.00000000
Si       2.62999935       0.04000824      -2.75924404       0.00000000
Si       0.00284098      -2.66677076       2.74401458       0.00000000
Si      -2.73133292      -0.00957852      -2.68738553       0.00000000
Si      -2.72721155       2.69289992      -0.02150212       0.00000000
