10
Lattice="16.290000149 0.0 0.0 0.0 16.290000149 0.0 0.0 0.0 29.1751946751" Properties=species:S:1:pos:R:3:initial_magmoms:R:1 pbc="T T T"
Si       1.33506325       1.36392913      -1.36939611       0.00000000
Si      -1.36176256      -1.34260552      -1.37747764       0.00000000
Si      -1.42527727       1.36199062       1.29858791       0.00000000
Si       1.40046760      -1.34079733       1.36064355       0.00000000
Si       2.70444953      -2.68690520      -0.07104160       0.00000000
Si       0.05683581      -2.71932230       2.67373154       0.00000000
Si       2.69529455       2.70954830      -0.00154629       0.00000000
Si      -0.13175352       2.79839397       2.61196765       0.00000000
Si      -2.72547992      -2.69265557      -0.02768726       0.00000000
Si       2.62992278       0.09238222       2.78748562       0.00000000
