10
Lattice="16.290000149 0.0 0.0 0.0 16.290000149 0.0 0.0 0.0 29.1751946751" Properties=species:S:1:pos:R:3:initial_magmoms:R:1 pbc="T T T"
Si      -1.43422048       1.32180319       1.28230816       0.00000000
Si      -1.37722177      -1.34027605      -1.33228526       0.00000000
Si       1.34941474       1.35801586      -1.35270790       0.00000000
Si       1.35695701      -1.33459084       1.37718589       0.00000000
Si      -0.00755856       2.71122617       2.46130695       0.00000000
Si       0.00127062      -2.70648578      -2.64406037       0.00000000
Si       2.72826552       0.01102833      -2.67428587       0.00000000
Si      -2.72961758       0.03595203      -2.67306051       0.00000000
Si      -0.01272249       2.75278197      -2.65678075       0.00000000
Si       0.01557324      -2.66755268       2.75005385       0.00000000
