10
Lattice="16.290000149 0.0 0.0 0.0 16.290000149 0.0 0.0 0.0 29.1751946751" Properties=species:S:1:pos:R:3:initial_magmoms:R:1 pbc="T T T"
H       -1.20451519      -0.51528528      -1.05561689       0.00000000
Si      -1.52726896       1.28805031       1.18786805       0.00000000
Si       1.14649021      -1.50069997       1.36752773       0.00000000
Si       1.68130721       0.72951508      -1.45464603       0.00000000
Si      -2.47446731      -1.07937541      -1.98817282       0.00000000
Si       3.10549305      -1.20192508      -1.46920445       0.00000000
Si       2.64888923      -0.11772783       2.53989325       0.00000000
Si      -0.15912072       2.60900642       2.57902011       0.00000000
Si       2.75285364       2.48417615      -0.12262334       0.00000000
Si       2.40898966      -2.93412225       0.04568835       0.00000000
