10
Lattice="16.290000149 0.0 0.0 0.0 16.290000149 0.0 0.0 0.0 29.1751946751" Properties=species:S:1:pos:R:3:initial_magmoms:R:1 pbc="T T T"
Si      -1.03259053       1.48854763       1.46937950       0.00000000
Si       0.91533511       1.83769121      -1.17115066       0.00000000
Si      -1.33781626      -1.45683100      -1.29488267       0.00000000
Si       1.50283396      -1.32015790       1.29044804       0.00000000
H       -1.91870138       2.33691455       0.58058637       0.00000000
H        2.74594017      -1.01848339      -1.30176801       0.00000000
Si       2.31756203      -2.31419000      -0.64903138       0.00000000
Si       0.43878744      -3.00684081      -1.92565037       0.00000000
Si       0.86309308       2.79319746       2.10061402       0.00000000
Si       2.47619405       2.61850349       0.42064796       0.00000000
