10
Lattice="16.290000149 0.0 0.0 0.0 16.290000149 0.0 0.0 0.0 29.1751946751" Properties=species:S:1:pos:R:3:initial_magmoms:R:1 pbc="T T T"
Si       1.46897767      -1.29334049       1.27171756       0.00000000
Si      -1.39986487      -1.41671362      -1.25785934       0.00000000
Si      -1.23220819       1.43002907       1.41601807       0.00000000
Si       1.38293956       1.33753445      -1.38118289       0.00000000
Si       0.15599304      -2.62934123       2.63793358       0.00000000
Si      -2.58514157       2.74046184      -0.00989039       0.00000000
Si      -2.66111813      -0.02476243      -2.68834831       0.00000000
Si       0.03005505      -2.69862260      -2.66999712       0.00000000
Si       2.70052690       0.06849456       2.71562712       0.00000000
Si       2.76220736       2.69928072      -0.04767227       0.00000000
