10
Lattice="16.290000149 0.0 0.0 0.0 16.290000149 0.0 0.0 0.0 29.1751946751" Properties=species:S:1:pos:R:3:initial_magmoms:R:1 pbc="T T T"
Si       1.28751437       1.41016015       1.31883550       0.00000000
Si      -1.32208012       1.37458279      -1.33432753       0.00000000
Si       1.40513143      -1.31831713      -1.31282541       0.00000000
Si      -1.31878954      -1.32639697       1.44172142       0.00000000
Si      -2.55959885       2.74040157       0.08387868       0.00000000
Si       0.01361844      -2.69364926      -2.62465886       0.00000000
Si       2.77544136      -2.55736712       0.13158013       0.00000000
Si      -2.70977636       0.01575243      -2.66448300       0.00000000
Si       2.73644309       0.07962552      -2.65465096       0.00000000
Si       2.70376535       0.18544536       2.69593386       0.00000000
