10
Lattice="16.290000149 0.0 0.0 0.0 16.290000149 0.0 0.0 0.0 29.1751946751" Properties=species:S:1:pos:R:3:initial_magmoms:R:1 pbc="T T T"
Si       1.81907174      -0.88744663       1.14801474       0.00000000
Si      -0.87467527       1.78017122       1.28268743       0.00000000
Si       1.11956284       1.44200710      -1.55016562       0.00000000
Si      -1.02403828      -2.15016599      -0.39103513       0.00000000
H       -1.92976229      -0.58556035      -1.88623469       0.00000000
Si       2.60587874       2.45588042      -0.08040684       0.00000000
Si      -0.04994514      -2.55370513      -2.54323090       0.00000000
Si      -1.95820463       0.61196644       2.98590612       0.00000000
Si       0.99610093       3.24607575       1.44201317       0.00000000
H        3.19523466      -0.62608987      -1.75728033       0.00000000
