10
Lattice="16.290000149 0.0 0.0 0.0 16.290000149 0.0 0.0 0.0 29.1751946751" Properties=species:S:1:pos:R:3:initial_magmoms:R:1 pbc="T T T"
Si      -1.37849239       1.36620973       1.31177510       0.00000000
Si      -1.37839465      -1.33486777      -1.34523905       0.00000000
Si       1.35641944       1.35562123      -1.35705501       0.00000000
Si       1.35487189      -1.35132067       1.36884178       0.00000000
Si      -0.00127062       2.70648578       2.64406037       0.00000000
Si      -0.00737937      -2.68048694      -2.68391368       0.00000000
Si      -2.73196334       0.01472616       2.67358566       0.00000000
Si      -0.00374670       2.72521928      -2.69199521       0.00000000
Si       2.71516835      -2.70308117       0.01604636       0.00000000
Si      -2.72805374      -2.69980688       0.01140750       0.00000000
