10
Lattice="16.290000149 0.0 0.0 0.0 16.290000149 0.0 0.0 0.0 29.1751946751" Properties=species:S:1:pos:R:3:initial_magmoms:R:1 pbc="T T T"
Si       1.36411810       1.33040431       1.37873217       0.00000000
Si       1.35423332      -1.38992797      -1.32916352       0.00000000
Si      -1.34099281      -1.35252613       1.38558835       0.00000000
Si      -1.34900749       1.38922750      -1.35641315       0.00000000
Si      -2.69304653       2.69237864       0.06532326       0.00000000
Si       2.71130762       2.67716378       0.00974451       0.00000000
Si      -2.69757515      -2.70316262       0.03241364       0.00000000
Si       2.70563870      -0.06558354      -2.70780817       0.00000000
Si      -2.71606430       0.06089202      -2.72863926       0.00000000
Si       0.03382909       2.68035662       2.76989298       0.00000000
