10
Lattice="16.290000149 0.0 0.0 0.0 16.290000149 0.0 0.0 0.0 29.1751946751" Properties=species:S:1:pos:R:3:initial_magmoms:R:1 pbc="T T T"
Si       1.38504097      -1.31504284      -1.35819284       0.00000000
Si       1.37057545       1.36189288       1.32682950       0.00000000
Si      -1.36016614       1.36959805      -1.33494021       0.00000000
Si      -1.35641944      -1.35562123       1.35705501       0.00000000
Si       0.00703728      -2.67799457      -2.66483311       0.00000000
Si      -0.00827532       2.70888041       2.64840747       0.00000000
Si       0.01625742       2.69070077      -2.69526283       0.00000000
Si       2.71461449      -2.68152950       0.01709666       0.00000000
Si      -2.73491184       0.01058850       2.66883011       0.00000000
Si      -2.73481410      -2.69048900       0.01181595       0.00000000
