10
Lattice="16.290000149 0.0 0.0 0.0 16.290000149 0.0 0.0 0.0 29.1751946751" Properties=species:S:1:pos:R:3:initial_magmoms:R:1 pbc="T T T"
Si       2.30083220       0.06271650      -0.45107768       0.00000000
Si      -0.86094280       2.07707276      -0.79490735       0.00000000
Si      -0.14405247       0.41493888       2.35849356       0.00000000
Si      -0.92191627      -2.07971663      -0.81521329       0.00000000
H       -2.31034556       0.20360871       0.91665544       0.00000000
H       -1.00686862       2.87160123       0.48261607       0.00000000
Si      -3.59230341       0.15643287       0.09808700       0.00000000
Si      -2.99043678      -1.35680063      -1.66152734       0.00000000
Si       3.07092567       2.10867536       0.42811681       0.00000000
Si       2.05990310       0.03624525       3.16434161       0.00000000
