10
Lattice="16.290000149 0.0 0.0 0.0 16.290000149 0.0 0.0 0.0 29.1751946751" Properties=species:S:1:pos:R:3:initial_magmoms:R:1 pbc="T T T"
Si      -1.37331217       1.35900955       1.32099446       0.00000000
Si      -1.37412667      -1.36420606      -1.33141001       0.00000000
Si       1.35392707       1.37476198      -1.34281751       0.00000000
Si       1.35956341      -1.32527296       1.39156926       0.00000000
Si      -0.01369989       2.66712914       2.71057981       0.00000000
Si       2.68340285      -2.69596244       0.01817615       0.00000000
Si      -0.01383021      -2.71596656      -2.68420544       0.00000000
Si      -2.71469594       0.02604771       2.69386243       0.00000000
Si       2.70097976       0.02689479      -2.70944198       0.00000000
Si      -2.73026919       2.69360039      -0.05619142       0.00000000
