10
Lattice="16.290000149 0.0 0.0 0.0 16.290000149 0.0 0.0 0.0 29.1751946751" Properties=species:S:1:pos:R:3:initial_magmoms:R:1 pbc="T T T"
Si       1.29121057      -1.41468877       1.35798861       0.00000000
Si      -1.33125139       1.06904755       1.62287020       0.00000000
Si       1.31878954       1.32639697      -1.44172142       0.00000000
Si      -1.40908501      -1.36427122      -1.31807695       0.00000000
H       -2.51724485       1.58201965       0.82495780       0.00000000
Si       2.71377393       0.02150280       2.52604671       0.00000000
Si      -2.02308770      -0.79366510       3.04142652       0.00000000
Si      -0.34735167      -2.47458134       2.78818583       0.00000000
H       -1.88662637       3.24012990      -0.28069455       0.00000000
Si       2.60630391       2.73655713      -0.12288592       0.00000000
