10
Lattice="16.290000149 0.0 0.0 0.0 16.290000149 0.0 0.0 0.0 29.1751946751" Properties=species:S:1:pos:R:3:initial_magmoms:R:1 pbc="T T T"
Si      -1.38440566      -1.28019853      -1.37559147       0.00000000
Si       1.20392875      -1.39675348       1.44115834       0.00000000
Si      -1.42118848       1.37635840       1.28977117       0.00000000
Si       1.87426226       0.80221735      -1.19834165       0.00000000
Si       2.52001415      -2.71923108       0.04101157       0.00000000
Si       2.63319707       0.00584811       2.68419085       0.00000000
Si       2.68558571       2.65979864      -0.01520903       0.00000000
Si       3.50888232      -0.93243961      -1.11259313       0.00000000
Si      -0.09756081       2.72183096       2.67756808       0.00000000
Si      -2.72135367      -2.68516869      -0.02391491       0.00000000
