10
Lattice="16.290000149 0.0 0.0 0.0 16.290000149 0.0 0.0 0.0 29.1751946751" Properties=species:S:1:pos:R:3:initial_magmoms:R:1 pbc="T T T"
Si       1.35008263       1.39675705      -1.30890718       0.00000000
Si      -1.32300865       1.35177679       1.38541329       0.00000000
Si      -1.33692031      -1.32550102      -1.40581551       0.00000000
Si       1.38487807      -1.35570268       1.34080442       0.00000000
Si       2.66906765      -0.09185931      -2.51819274       0.00000000
Si       0.02322954      -2.71769330       2.67227278       0.00000000
Si       2.71256195       2.67864617       0.10012927       0.00000000
Si      -0.03187953       2.72118914      -2.67506776       0.00000000
Si      -2.71013474      -0.00775404       2.68989460       0.00000000
Si      -2.69335604       2.71152917       0.07074985       0.00000000
