10
Lattice="16.290000149 0.0 0.0 0.0 16.290000149 0.0 0.0 0.0 29.1751946751" Properties=species:S:1:pos:R:3:initial_magmoms:R:1 pbc="T T T"
Si      -1.37637469      -1.32032080       1.36338602       0.00000000
Si      -1.37327959       1.35216775      -1.34553080       0.00000000
Si       1.29083590      -1.36792018      -1.41207942       0.00000000
Si       1.40903614       1.32550102       1.35588800       0.00000000
Si       0.04316850      -2.69322572       2.61619806       0.00000000
Si       0.04474863       2.69560406       2.69981416       0.00000000
Si      -0.00956223       2.70221780      -2.69532118       0.00000000
Si       2.67957470      -0.00793323      -2.72516741       0.00000000
Si       2.61076574      -2.80872183      -0.13613146       0.00000000
Si      -2.73284301      -2.70210377       0.01283709       0.00000000
