10
Lattice="16.290000149 0.0 0.0 0.0 16.290000149 0.0 0.0 0.0 29.1751946751" Properties=species:S:1:pos:R:3:initial_magmoms:R:1 pbc="T T T"
H        1.35557236       0.57761083       0.27436353       0.00000000
Si      -0.46498176       0.41919057      -2.21203408       0.00000000
Si      -1.35570268       1.35128809       1.32855084       0.00000000
Si      -0.44380476      -2.20693664       0.61317507       0.00000000
H        2.27931311      -1.18768762      -0.17779364       0.00000000
H        2.97083991      -0.26797050       1.44802326       0.00000000
Si       0.62796322      -2.11489814       2.72000340       0.00000000
Si       1.36674730       1.71328448      -2.84341447       0.00000000
Si      -2.75516031      -2.04763673       1.23300208       0.00000000
Si      -2.52859573      -0.17135451       2.64464387       0.00000000
