10
Lattice="16.290000149 0.0 0.0 0.0 16.290000149 0.0 0.0 0.0 29.1751946751" Properties=species:S:1:pos:R:3:initial_magmoms:R:1 pbc="T T T"
Si       1.80946064       1.32749981       0.60453921       0.00000000
Si      -0.73249615      -0.34546529       2.26204037       0.00000000
Si      -1.22222242       1.87034777      -0.95181155       0.00000000
Si       1.61616349      -1.52976622      -1.07714819       0.00000000
H        0.71294815      -2.52376574       0.99067291       0.00000000
H       -1.17825571      -2.94592109      -0.24565514       0.00000000
Si      -0.27117963      -2.87134547      -1.46366117       0.00000000
Si       0.47495124       2.87263890       1.76162743       0.00000000
Si      -1.46315152       1.84387652       2.66360775       0.00000000
Si      -1.16168878      -1.45059682      -3.05665597       0.00000000
