10
Lattice="16.290000149 0.0 0.0 0.0 16.290000149 0.0 0.0 0.0 29.1751946751" Properties=species:S:1:pos:R:3:initial_magmoms:R:1 pbc="T T T"
Si      -1.31619340       1.43169716      -1.28029507       0.00000000
Si       1.31559133       1.38209411       1.36262747       0.00000000
Si      -1.39770857      -1.33501438       1.33494021       0.00000000
Si       1.28184822      -1.34526079      -1.45400418       0.00000000
Si      -2.63902287       0.09364616      -2.61828700       0.00000000
Si       2.64858086      -2.69741225      -0.08717548       0.00000000
Si      -0.02889768      -2.69421941       2.67297299       0.00000000
Si       2.66115674       0.01977606       2.71661908       0.00000000
Si       2.64032183       2.76297951      -0.00040845       0.00000000
Si       2.69416028       0.03937293      -2.71605891       0.00000000
