10
Lattice="16.290000149 0.0 0.0 0.0 16.290000149 0.0 0.0 0.0 29.1751946751" Properties=species:S:1:pos:R:3:initial_magmoms:R:1 pbc="T T T"
Si      -1.31298463      -1.33600074       1.36621602       0.00000000
Si      -1.46897767       1.29334049      -1.27171756       0.00000000
Si       1.23154923       1.36183505       1.44390956       0.00000000
Si       1.37947872      -1.39536150      -1.29794606       0.00000000
Si       2.61169994      -0.08856140       2.60067685       0.00000000
Si      -0.08603811       2.63087493      -2.65290045       0.00000000
Si       2.64116855       2.65658055       0.05575380       0.00000000
Si      -2.61577740       0.07688261       2.70468642       0.00000000
Si       2.71621658      -0.04483904      -2.66815908       0.00000000
Si      -2.58764456      -2.79951065       0.06789068       0.00000000
