10
Lattice="16.290000149 0.0 0.0 0.0 16.290000149 0.0 0.0 0.0 29.1751946751" Properties=species:S:1:pos:R:3:initial_magmoms:R:1 pbc="T T T"
Si       1.25981974      -0.24795009      -1.93784561       0.00000000
Si      -0.33765912       2.12120237       0.93468571       0.00000000
Si      -2.06169500      -0.69152680      -0.90574392       0.00000000
Si       1.22735377      -1.32496345       1.51355075       0.00000000
H        2.57274488      -0.70340221      -1.32869672       0.00000000
H       -2.50694957       0.29504448       1.71716443       0.00000000
H        0.37419759      -3.06874281      -0.24256257       0.00000000
H       -1.24473520       2.04662675       2.15269174       0.00000000
H       -3.19847637      -0.62467264       0.09134753       0.00000000
Si       0.28733931      -2.24487605      -2.81528959       0.00000000
