10
Lattice="16.290000149 0.0 0.0 0.0 16.290000149 0.0 0.0 0.0 29.1751946751" Properties=species:S:1:pos:R:3:initial_magmoms:R:1 pbc="T T T"
Si      -1.23751873       1.36581877       1.41820621       0.00000000
Si       1.32208012      -1.37458279       1.33432753       0.00000000
Si       1.34994244       1.41045337      -1.30465636       0.00000000
Si      -1.38769624      -1.35883036      -1.33015548       0.00000000
H       -1.88333579       0.53915013       2.49535440       0.00000000
Si       2.60959449       0.03557736       2.65316303       0.00000000
Si      -2.81629668       2.45187308       0.09662824       0.00000000
Si      -0.08879679       2.76004731      -2.59139914       0.00000000
Si       2.68837782       0.04742019      -2.67746597       0.00000000
Si      -0.00412137      -2.70247844      -2.66588341       0.00000000
