10
Lattice="16.290000149 0.0 0.0 0.0 16.290000149 0.0 0.0 0.0 29.1751946751" Properties=species:S:1:pos:R:3:initial_magmoms:R:1 pbc="T T T"
Si       1.31347900       1.36120870      -1.38299175       0.00000000
Si      -1.38520387       1.48069585       1.21575954       0.00000000
Si       1.60036219      -1.29815011       1.21345470       0.00000000
Si      -1.50557068      -1.33828867      -1.30156378       0.00000000
Si      -1.69215635      -2.37711827       2.10744101       0.00000000
Si      -2.23541156      -0.00317655       2.84828673       0.00000000
Si       2.37254078      -0.10309941      -2.86194072       0.00000000
Si       3.47113839       0.16775442       1.37278044       0.00000000
Si       3.12821760       2.11820501       0.00096278       0.00000000
H        2.07847370       1.00688491       3.00460742       0.00000000
