10
Lattice="16.290000149 0.0 0.0 0.0 16.290000149 0.0 0.0 0.0 29.1751946751" Properties=species:S:1:pos:R:3:initial_magmoms:R:1 pbc="T T T"
Si      -1.25048557       1.34024673       1.48904796       0.00000000
Si       1.35607735      -1.38390947       1.40070110       0.00000000
Si      -1.44637282      -1.44379575      -1.27393488       0.00000000
Si       1.52223535       1.37302221      -1.28344599       0.00000000
H       -0.64405774       1.16169204      -2.72528411       0.00000000
Si      -0.03878649      -2.61835363      -2.74877014       0.00000000
Si      -2.88654730       2.51452768       0.27821466       0.00000000
Si      -2.58743358      -0.06472343       2.84072452       0.00000000
Si       0.13392009       2.62044526       2.86463943       0.00000000
Si       3.72619092       0.99432858      -0.47759794       0.00000000
