10
Lattice="16.290000149 0.0 0.0 0.0 16.290000149 0.0 0.0 0.0 29.1751946751" Properties=species:S:1:pos:R:3:initial_magmoms:R:1 pbc="T T T"
Si       1.37025943       1.36839259       1.32519569       0.00000000
Si       1.38058240      -1.34815878      -1.33969576       0.00000000
Si      -1.32553360       1.38236941      -1.36084778       0.00000000
Si      -1.35123922      -1.35118058       1.37391827       0.00000000
Si      -2.68420106      -2.70513371      -0.00860668       0.00000000
Si      -2.69358410       0.03389949      -2.70001839       0.00000000
Si       0.00470781       2.71958294       2.67484020       0.00000000
Si       2.69860142       0.00723276       2.69896808       0.00000000
Si       2.70531290       0.03272661      -2.70273168       0.00000000
Si      -2.69048900       2.72893340      -0.00954029       0.00000000
