10
Lattice="16.28999089631971 0.0 0.0 0.0 16.28999089631971 0.0 0.0 0.0 34.40246978574605" Properties=species:S:1:pos:R:3:initial_magmoms:R:1 pbc="T T T"
Si       1.35806472       1.33717524       1.37790569       0.00000000
Si       1.34873055      -1.37462499      -1.37758231       0.00000000
Si      -1.35826509      -1.37493450       1.37216048       0.00000000
Si      -1.28594237       1.44639643      -1.50453437       0.00000000
Si      -0.39623796      -2.43207405      -2.75040817       0.00000000
Si      -2.69725585       2.70169406       0.00856278       0.00000000
Si       2.73453714       2.66412932       0.02281229       0.00000000
Si       0.00215028       2.69791478       2.73504948       0.00000000
Si       2.71471221      -0.01793796       2.73515269       0.00000000
Si      -2.71581880      -0.01943123       2.73532470       0.00000000
