10
Lattice="16.28999089631971 0.0 0.0 0.0 16.28999089631971 0.0 0.0 0.0 34.40246978574605" Properties=species:S:1:pos:R:3:initial_magmoms:R:1 pbc="T T T"
Si      -1.96563678       0.55755198       1.09816185       0.00000000
Si      -0.81834837      -1.43343855      -1.68909341       0.00000000
Si       0.39366251       1.76345181      -1.54852484       0.00000000
Si       0.28739144      -0.98013672       2.33754592       0.00000000
Si      -0.51307377      -3.24470736       1.39522734       0.00000000
Si      -2.07139146      -3.03712389      -0.39896567       0.00000000
Si      -1.95943029       0.00091224      -3.21986656       0.00000000
Si       1.42939700       3.52539125      -0.46188782       0.00000000
Si       2.15442092       1.16142228      -3.02091696       0.00000000
Si      -0.55402683       0.55278879       3.95470372       0.00000000
