10
Lattice="16.28999089631971 0.0 0.0 0.0 16.28999089631971 0.0 0.0 0.0 34.40246978574605" Properties=species:S:1:pos:R:3:initial_magmoms:R:1 pbc="T T T"
Si       1.35366642       1.36940256      -1.33604474       0.00000000
Si       1.35661491      -1.35549090       1.36065284       0.00000000
Si      -1.35671265       1.36049193       1.36030882       0.00000000
Si      -1.33947783      -1.38763107      -1.35175636       0.00000000
Si      -2.63537991      -0.04092048      -2.70416981       0.00000000
Si      -2.71502172       2.71142163       0.00216736       0.00000000
Si       2.71194291      -2.71733653       0.00254578       0.00000000
Si       2.71195920       2.71759554       0.00323383       0.00000000
Si      -2.71595025      -2.71458515       0.00333704       0.00000000
Si       2.71345788       0.00167787       2.71776223       0.00000000
