10
Lattice="16.28999089631971 0.0 0.0 0.0 16.28999089631971 0.0 0.0 0.0 34.40246978574605" Properties=species:S:1:pos:R:3:initial_magmoms:R:1 pbc="T T T"
Si       1.32450732       1.35120210       1.36073197       0.00000000
Si      -1.22303691       1.39042191      -1.43941046       0.00000000
Si      -1.39188276      -1.35830287       1.35674128       0.00000000
Si       1.38197844      -1.33829875      -1.42554626       0.00000000
Si      -2.11318767      -0.47339749      -2.65252582       0.00000000
Si      -0.43798923      -2.18860417      -2.67736648       0.00000000
Si       2.66281227      -2.70851581       0.01559121       0.00000000
Si       2.68545537      -0.00158987       2.71856381       0.00000000
Si      -2.72691342       2.68090756       0.00642983       0.00000000
Si       2.69379585       2.71738087      -0.02693371       0.00000000
