10
Lattice="16.28999089631971 0.0 0.0 0.0 16.28999089631971 0.0 0.0 0.0 34.40246978574605" Properties=species:S:1:pos:R:3:initial_magmoms:R:1 pbc="T T T"
Si       1.67070240       1.01530683       1.26250013       0.00000000
Si      -1.00965420      -1.89621302       1.16862606       0.00000000
Si      -1.92161727       1.55173653       0.11103747       0.00000000
Si       0.33335856       0.71747676      -2.46382408       0.00000000
Si      -2.05830666       0.96927129      -2.15409847       0.00000000
Si       0.17961354       2.15130627       2.63017796       0.00000000
Si       2.41337979       2.68253946      -0.27014937       0.00000000
Si      -2.51353071      -0.60572736       2.61446635       0.00000000
Si      -1.10962593       3.49596432       1.21408207       0.00000000
Si       2.90717856      -0.56925405       2.58110281       0.00000000
