10
Lattice="16.28999089631971 0.0 0.0 0.0 16.28999089631971 0.0 0.0 0.0 34.40246978574605" Properties=species:S:1:pos:R:3:initial_magmoms:R:1 pbc="T T T"
Si       0.25257645       0.20497707       2.36868017       0.00000000
Si      -2.05912116      -1.22316723      -0.01840533       0.00000000
Si       2.20553568      -0.51442191      -0.89886823       0.00000000
Si      -0.14776659       1.86988023      -1.67918549       0.00000000
Si       0.10301796       2.55013434       2.69976973       0.00000000
Si       1.89480393       2.98245465      -1.27426819       0.00000000
Si      -2.90076030      -0.84607002      -2.31824612       0.00000000
Si      -1.49126805      -3.48401465       0.47626806       0.00000000
Si      -1.97685666       3.14817282      -0.93447481       0.00000000
Si      -3.28722426      -0.44465184       1.92278951       0.00000000
