10
Lattice="16.28999089631971 0.0 0.0 0.0 16.28999089631971 0.0 0.0 0.0 34.40246978574605" Properties=species:S:1:pos:R:3:initial_magmoms:R:1 pbc="T T T"
Si       0.56785311      -2.26084742       0.49467339       0.00000000
Si       2.05912116       1.22316723       0.01840533       0.00000000
Si      -1.22810310       0.77851539       1.94119484       0.00000000
Si      -0.84163914       0.37709721      -2.29984079       0.00000000
Si       2.31169761       1.42814430       2.38708551       0.00000000
Si       0.36724176       0.66368718       3.66493156       0.00000000
Si      -0.96283674      -3.62692682      -0.68474714       0.00000000
Si       2.86073577      -2.62800773       0.03677626       0.00000000
Si       1.91135457       3.09304746      -1.66078016       0.00000000
Si      -1.57998339       3.14797734       1.92564492       0.00000000
