10
Lattice="16.28999089631971 0.0 0.0 0.0 16.28999089631971 0.0 0.0 0.0 34.40246978574605" Properties=species:S:1:pos:R:3:initial_magmoms:R:1 pbc="T T T"
Si       1.43358516      -0.58233722       1.72067489       0.00000000
Si      -0.03877020      -1.53460175      -1.80750677       0.00000000
Si       0.39486960       2.20718586      -0.78761058       0.00000000
Si      -2.02105143      -0.30675929       1.24199866       0.00000000
Si      -2.39912604      -1.44790637      -2.13085577       0.00000000
Si      -1.20047526       2.32201407      -2.51134730       0.00000000
Si      -2.19478428      -2.70062366       1.40420639       0.00000000
Si      -3.08073548       0.85170473      -1.97036816       0.00000000
Si       1.20837591       1.03147140       3.44571890       0.00000000
Si       3.65920641      -0.59833400       1.14058012       0.00000000
