10
Lattice="16.28999089631971 0.0 0.0 0.0 16.28999089631971 0.0 0.0 0.0 34.40246978574605" Properties=species:S:1:pos:R:3:initial_magmoms:R:1 pbc="T T T"
Si       1.71048258       0.89502147      -1.53923616       0.00000000
Si      -0.86980455      -1.77593580      -1.52062442       0.00000000
Si      -1.77186330       1.81799658      -0.44527142       0.00000000
Si       0.03556107       0.21991500       2.68628395       0.00000000
Si       3.19420836      -0.54843543       1.79725483       0.00000000
Si      -2.14679394      -0.52432623      -3.09305898       0.00000000
Si      -1.91387952      -3.30259387      -0.06512391       0.00000000
Si       2.32901388       3.02011713      -0.39377089       0.00000000
Si       0.57839274       2.19545217      -3.12171626       0.00000000
Si       2.07813159       1.33248942       3.09120125       0.00000000
