10
Lattice="16.28999089631971 0.0 0.0 0.0 16.28999089631971 0.0 0.0 0.0 34.40246978574605" Properties=species:S:1:pos:R:3:initial_magmoms:R:1 pbc="T T T"
Si      -1.48217238      -0.80250079       1.64161797       0.00000000
Si       2.19116464       1.02157196       0.26524319       0.00000000
Si      -1.73497689       1.70690855      -0.42380426       0.00000000
Si       0.40936444      -2.06369606      -1.34647902       0.00000000
Si       0.50936875       2.69854601       0.09529489       0.00000000
Si       2.99471776       0.21501334      -1.84710404       0.00000000
Si      -0.06417608      -2.43546644       2.63667556       0.00000000
Si       1.48398316      -1.07009059      -3.29259342       0.00000000
Si      -2.72661435      -2.70241067       0.52804380       0.00000000
Si      -3.04641963       1.02222356      -2.30654928       0.00000000
