10
Lattice="16.28999089631971 0.0 0.0 0.0 16.28999089631971 0.0 0.0 0.0 34.40246978574605" Properties=species:S:1:pos:R:3:initial_magmoms:R:1 pbc="T T T"
Si      -0.05955624       2.22076683       0.76683148       0.00000000
Si      -2.13915393      -1.08108585       0.09508848       0.00000000
Si       0.36284346       0.29704815      -2.36527433       0.00000000
Si       1.46491083      -1.70533494       0.94751335       0.00000000
Si       0.51240195      -2.04810912      -2.69636388       0.00000000
Si      -1.43205390      -2.81256624      -1.41851783       0.00000000
Si       1.43845587       2.10061179       2.55589852       0.00000000
Si       3.42277335      -1.32320412      -0.33181201       0.00000000
Si      -2.17885266       2.59766856       1.68929982       0.00000000
Si       3.65905980       1.01270043      -0.84255136       0.00000000
