10
Lattice="16.28999089631971 0.0 0.0 0.0 16.28999089631971 0.0 0.0 0.0 34.40246978574605" Properties=species:S:1:pos:R:3:initial_magmoms:R:1 pbc="T T T"
Si       0.66355686       2.17626255       0.62492121       0.00000000
Si       1.77890058      -1.46315151       0.64453063       0.00000000
Si       0.64570302      -0.25959744      -2.41405706       0.00000000
Si      -1.89377766      -0.96619248       1.44917045       0.00000000
Si       1.91558997      -0.88068627       2.90966658       0.00000000
Si       0.57625875      -3.49120764       0.79579838       0.00000000
Si      -1.15610130       2.52372825       2.48795360       0.00000000
Si      -1.18224675       0.87285078      -3.48782754       0.00000000
Si       0.24045669       3.62680560      -1.22975137       0.00000000
Si      -2.50726395      -2.39542821      -1.71348477       0.00000000
