10
Lattice="16.28999089631971 0.0 0.0 0.0 16.28999089631971 0.0 0.0 0.0 34.40246978574605" Properties=species:S:1:pos:R:3:initial_magmoms:R:1 pbc="T T T"
Si       1.17775071      -0.21483252       2.08647656       0.00000000
Si       0.39012921       1.88147871      -1.50129022       0.00000000
Si       1.06544745      -1.75251078      -1.36571001       0.00000000
Si      -2.55995721      -0.04043178       0.11311538       0.00000000
Si      -1.51236360       3.18093201      -0.81537339       0.00000000
Si      -0.49593276      -1.15315281       3.50090535       0.00000000
Si      -2.98305738       1.41011127      -1.74155720       0.00000000
Si       3.30641388      -0.85942782      -1.60432567       0.00000000
Si      -3.22351407      -2.21669433      -0.51180583       0.00000000
Si      -1.44461349      -3.67984584       0.13272480       0.00000000
