10
Lattice="16.28999089631971 0.0 0.0 0.0 16.28999089631971 0.0 0.0 0.0 34.40246978574605" Properties=species:S:1:pos:R:3:initial_magmoms:R:1 pbc="T T T"
Si       0.13668939       0.58246524       2.26513595       0.00000000
Si      -1.20264183      -2.02805613       0.15126774       0.00000000
Si      -1.77890058       1.46315151      -0.64453063       0.00000000
Si       2.39166522      -0.25179453      -0.30972561       0.00000000
Si       2.05830666      -0.96927129       2.15409847       0.00000000
Si      -1.13319756       1.20355407      -3.05858769       0.00000000
Si       2.51006094       1.92733506      -1.49843481       0.00000000
Si      -2.25427536      -2.14739667      -1.95547188       0.00000000
Si      -2.90848176      -1.48651137       1.82577449       0.00000000
Si      -3.67267824       0.49695903       0.80463982       0.00000000
