10
Lattice="16.28999089631971 0.0 0.0 0.0 16.28999089631971 0.0 0.0 0.0 34.40246978574605" Properties=species:S:1:pos:R:3:initial_magmoms:R:1 pbc="T T T"
Si      -1.18221417      -1.34719929      -1.48768201       0.00000000
Si      -1.42128621       1.26177453       1.42850143       0.00000000
Si       1.28321217      -1.44506961       1.41144124       0.00000000
Si       1.07259876       1.57382577      -1.59463935       0.00000000
Si      -2.56565708      -2.67170661       0.10013877       0.00000000
Si      -2.74950276       2.56632660       0.00465122       0.00000000
Si       2.67765246       2.68068240      -0.06555738       0.00000000
Si       0.63744399      -1.69466499      -3.35071440       0.00000000
Si      -0.07729605       2.62511721       2.79337890       0.00000000
Si       2.63578716      -0.09275526       2.78925060       0.00000000
