10
Lattice="16.28999089631971 0.0 0.0 0.0 16.28999089631971 0.0 0.0 0.0 34.40246978574605" Properties=species:S:1:pos:R:3:initial_magmoms:R:1 pbc="T T T"
Si       1.34110683      -1.37743353       1.32198445       0.00000000
Si       1.37764530       1.33749045      -1.36099687       0.00000000
Si      -1.34591238      -1.37098269      -1.36288900       0.00000000
Si      -1.26799731       1.47211101       1.40489444       0.00000000
Si       2.87803575       0.06169023       2.44185427       0.00000000
Si      -2.68245149       0.12168630       2.67262616       0.00000000
Si      -2.70013755      -2.71135647       0.00777496       0.00000000
Si       0.01586646       2.70063765      -2.71820946       0.00000000
Si      -2.70037701      -0.01399311      -2.72271619       0.00000000
Si      -2.71517485       2.71021617       0.01554993       0.00000000
