10
Lattice="16.28999089631971 0.0 0.0 0.0 16.28999089631971 0.0 0.0 0.0 34.40246978574605" Properties=species:S:1:pos:R:3:initial_magmoms:R:1 pbc="T T T"
Si      -2.18621574      -1.08185148      -0.19372042       0.00000000
Si      -0.21954033       1.80682164      -1.67746536       0.00000000
Si      -0.24630480       0.35178255       2.48582065       0.00000000
Si       2.18861037      -1.24594065      -0.58016357       0.00000000
Si       0.73627542       0.33537852      -3.27387846       0.00000000
Si      -0.77411709       2.63622699       2.46253016       0.00000000
Si      -1.79154162      -3.14874297       0.82139383       0.00000000
Si       2.08011897      -3.31446114       0.48160044       0.00000000
Si      -2.23513461      -0.66425733       3.24762937       0.00000000
Si      -3.74689548      -0.36458649       1.39498653       0.00000000
