10
Lattice="16.28999089631971 0.0 0.0 0.0 16.28999089631971 0.0 0.0 0.0 34.40246978574605" Properties=species:S:1:pos:R:3:initial_magmoms:R:1 pbc="T T T"
Si       0.82238762       0.11499111      -2.19522282       0.00000000
Si      -1.09328773       1.94618911       0.80924975       0.00000000
Si      -1.82863462      -1.42509874       0.52233299       0.00000000
Si       1.88207167      -1.04347291       1.01714399       0.00000000
Si       1.50399706      -2.18461999      -2.35571044       0.00000000
Si      -3.51776101      -0.25080899      -0.65110151       0.00000000
Si      -1.54650811       1.18836202       3.05246405       0.00000000
Si       1.94915389       0.04622450       3.08194698       0.00000000
Si      -2.16469732      -1.11428554       2.88299738       0.00000000
Si      -1.03125541       0.58943247      -3.60269745       0.00000000
