10
Lattice="16.28999089631971 0.0 0.0 0.0 16.28999089631971 0.0 0.0 0.0 34.40246978574605" Properties=species:S:1:pos:R:3:initial_magmoms:R:1 pbc="T T T"
Si       1.35371529      -1.35169533       1.35511404       0.00000000
Si      -1.35806472      -1.35589815      -1.35772863       0.00000000
Si       1.35635427       1.35822396      -1.35769423       0.00000000
Si      -1.35697329       1.36060596       1.36079045       0.00000000
Si       2.69421939       0.00643455       2.71036569       0.00000000
Si       2.71202436      -2.71412577       0.00144490       0.00000000
Si      -0.00130320      -2.71404432      -2.71480362       0.00000000
Si       2.71428867       0.00127062      -2.71507884       0.00000000
Si      -2.71541268      -2.71407690       0.00189214       0.00000000
Si       2.71450044       2.71550457       0.00013761       0.00000000
