10
Lattice="16.28999089631971 0.0 0.0 0.0 16.28999089631971 0.0 0.0 0.0 34.40246978574605" Properties=species:S:1:pos:R:3:initial_magmoms:R:1 pbc="T T T"
Si       0.79229673       0.70288092      -2.09628127       0.00000000
Si       0.73383192      -2.21998491       0.29073543       0.00000000
Si       1.27443186       1.43775540       1.36505636       0.00000000
Si      -2.29557051       0.81757881      -0.05734895       0.00000000
Si       0.09987399       2.93871600      -1.73003237       0.00000000
Si       1.06429086       3.56637852       0.30951919       0.00000000
Si       0.21569589       1.58097708       3.46405542       0.00000000
Si      -2.12574726       2.95471278      -1.14993760       0.00000000
Si      -0.73479303      -3.60010629       1.42429745       0.00000000
Si       1.19040804      -3.35290554      -1.69745321       0.00000000
