10
Lattice="16.28999089631971 0.0 0.0 0.0 16.28999089631971 0.0 0.0 0.0 34.40246978574605" Properties=species:S:1:pos:R:3:initial_magmoms:R:1 pbc="T T T"
Si      -1.35742941       1.35761130      -1.35717819       0.00000000
Si       1.35793440      -1.35695334      -1.35738461       0.00000000
Si      -1.35635427      -1.35822396       1.35769423       0.00000000
Si       1.35814617       1.35728061       1.35783184       0.00000000
Si      -0.00263898      -2.70991929       2.71280827       0.00000000
Si      -2.71441899      -2.71412211      -0.00003440       0.00000000
Si       0.00154755      -2.71410582      -2.71507884       0.00000000
Si       2.71551042       0.00094133       2.71380594       0.00000000
Si      -2.71518462       0.00190025      -2.71418437       0.00000000
Si       2.71552671      -2.71389405      -0.00034402       0.00000000
