10
Lattice="16.28999089631971 0.0 0.0 0.0 16.28999089631971 0.0 0.0 0.0 34.40246978574605" Properties=species:S:1:pos:R:3:initial_magmoms:R:1 pbc="T T T"
Si       1.47745413      -0.20642688       1.88831822       0.00000000
Si       0.25319547      -2.25283207      -0.82204747       0.00000000
Si      -2.20553568       0.51442191       0.89886823       0.00000000
Si       0.80534502       1.61595171      -1.66934638       0.00000000
Si      -2.35330227       2.38430214      -0.78031726       0.00000000
Si      -0.31073175       3.49687656      -0.37539996       0.00000000
Si       0.95778684       0.05429457      -3.50946671       0.00000000
Si      -1.40392107      -3.33675305       0.91723916       0.00000000
Si       2.84459238       1.69319889       1.73890821       0.00000000
Si      -1.95295923       0.71939898       3.26754841       0.00000000
