10
Lattice="16.28999089631971 0.0 0.0 0.0 16.28999089631971 0.0 0.0 0.0 34.40246978574605" Properties=species:S:1:pos:R:3:initial_magmoms:R:1 pbc="T T T"
Si      -0.06708222      -1.08969741      -2.06480299       0.00000000
Si       1.59226605      -0.77287253       1.56011847       0.00000000
Si      -1.76075841       0.60202953       1.47239213       0.00000000
Si       0.51214131       2.27165353      -0.63892303       0.00000000
Si       3.16234512       0.24853327       0.13891725       0.00000000
Si       2.15360316       2.27631247       1.03437964       0.00000000
Si       1.30686525       1.14884899       2.96157267       0.00000000
Si      -0.72502392       2.36396896       2.55902915       0.00000000
Si      -1.94915389      -0.04622450      -3.08194698       0.00000000
Si      -3.49566200       1.14213751      -0.02948293       0.00000000
