10
Lattice="16.28999089631971 0.0 0.0 0.0 16.28999089631971 0.0 0.0 0.0 34.40246978574605" Properties=species:S:1:pos:R:3:initial_magmoms:R:1 pbc="T T T"
Si       1.35827649       1.35659862       1.35748781       0.00000000
Si      -1.35684297      -1.35782037       1.35800385       0.00000000
Si      -1.35834165       1.35809730      -1.35652454       0.00000000
Si       1.36182771      -1.36331010      -1.35886391       0.00000000
Si      -2.71663443       0.00990432      -2.69580312       0.00000000
Si      -2.71243161       2.71331127       0.00061924       0.00000000
Si      -2.71368594      -2.71498914       0.00089446       0.00000000
Si       0.00070047       2.71446786       2.71545726       0.00000000
Si      -2.71440270      -0.00050499       2.71587009       0.00000000
Si       2.71577106      -0.00089595       2.71501003       0.00000000
