10
Lattice="16.28999089631971 0.0 0.0 0.0 16.28999089631971 0.0 0.0 0.0 34.40246978574605" Properties=species:S:1:pos:R:3:initial_magmoms:R:1 pbc="T T T"
Si      -1.34157924      -1.36243044      -1.39092703       0.00000000
Si       1.36923966       1.35340578      -1.38648911       0.00000000
Si       1.44966339      -1.29525048       1.42560474       0.00000000
Si      -1.57108905       1.31232240       1.50177185       0.00000000
Si      -0.24031008       1.70065971       3.40904584       0.00000000
Si      -2.68069869       2.71810053      -0.03615702       0.00000000
Si      -2.72407896      -2.68527618      -0.02366891       0.00000000
Si       2.71731861      -2.69345376      -0.04747543       0.00000000
Si       2.73670371       2.70352098      -0.01995344       0.00000000
Si      -2.69475696      -0.00653229      -2.74982535       0.00000000
