10
Lattice="16.28999089631971 0.0 0.0 0.0 16.28999089631971 0.0 0.0 0.0 34.40246978574605" Properties=species:S:1:pos:R:3:initial_magmoms:R:1 pbc="T T T"
Si      -1.29611385       0.58396392      -1.87644936       0.00000000
Si      -0.29558205       1.11858543       2.05186765       0.00000000
Si      -0.23628645      -2.33590455       0.51073935       0.00000000
Si       2.24780823       0.42663510      -0.75045590       0.00000000
Si       1.70909793       0.44719308       3.10657916       0.00000000
Si      -3.29621634      -0.71565228      -1.52272297       0.00000000
Si      -0.73624284       3.36758283       1.38480339       0.00000000
Si       0.04645908      -0.26414235      -3.70934517       0.00000000
Si       3.36673575       0.64733202       1.45866553       0.00000000
Si       3.15449334      -1.65514545      -1.45484686       0.00000000
