10
Lattice="16.28999089631971 0.0 0.0 0.0 16.28999089631971 0.0 0.0 0.0 34.40246978574605" Properties=species:S:1:pos:R:3:initial_magmoms:R:1 pbc="T T T"
Si      -1.92502188      -0.03067407       1.34658222       0.00000000
Si       0.29558205      -1.11858543      -2.05186765       0.00000000
Si       2.00467998      -0.67139235       1.05471151       0.00000000
Si      -0.44066079       2.24899740      -0.66706426       0.00000000
Si      -3.42303399       0.08948097      -0.44248481       0.00000000
Si       2.11727646       0.88441668       2.77831061       0.00000000
Si       1.67404185       2.89631313      -1.60449769       0.00000000
Si       3.66231780      -0.47125341      -0.59320212       0.00000000
Si      -0.89723691       3.38191803       1.32112438       0.00000000
Si      -2.63326221       2.02893579      -1.72844985       0.00000000
