10
Lattice="16.28999089631971 0.0 0.0 0.0 16.28999089631971 0.0 0.0 0.0 34.40246978574605" Properties=species:S:1:pos:R:3:initial_magmoms:R:1 pbc="T T T"
Si       1.05163353       0.11934054       2.10673962       0.00000000
Si       0.84673791       1.12746348      -1.92719303       0.00000000
Si       0.28540080      -1.92172153      -1.40145419       0.00000000
Si      -2.03188917       1.21511997      -0.40254352       0.00000000
Si       2.20509585      -1.89279049       1.80705954       0.00000000
Si      -1.30686525      -1.14884899      -2.96157267       0.00000000
Si      -3.06762366      -0.54681946      -1.48918054       0.00000000
Si       1.85547987      -0.90031572      -2.82265542       0.00000000
Si       2.25427536       2.14739667       1.95547188       0.00000000
Si       1.12107780       3.35095074      -1.10311581       0.00000000
