10
Lattice="16.28999089631971 0.0 0.0 0.0 16.28999089631971 0.0 0.0 0.0 34.40246978574605" Properties=species:S:1:pos:R:3:initial_magmoms:R:1 pbc="T T T"
Si       0.13349655       0.18756306      -2.29354514       0.00000000
Si      -1.57405383      -1.47773106       0.84685167       0.00000000
Si      -0.67196250       2.10525444       0.71639743       0.00000000
Si       2.01148920      -0.68141070       0.98057414       0.00000000
Si       2.31045957       1.24349715       2.31346418       0.00000000
Si       0.09997173       1.93789098       2.94093118       0.00000000
Si       2.48083668       0.02831202      -2.65446165       0.00000000
Si      -3.50658540      -1.09792971      -0.45394084       0.00000000
Si       3.69670599      -0.30957516      -0.60741035       0.00000000
Si      -0.49207203      -3.59543106       1.00324538       0.00000000
