10
Lattice="16.28999089631971 0.0 0.0 0.0 16.28999089631971 0.0 0.0 0.0 34.40246978574605" Properties=species:S:1:pos:R:3:initial_magmoms:R:1 pbc="T T T"
Si       1.57405383       1.47773106      -0.84685167       0.00000000
Si      -1.93253157       0.37980135      -1.30079251       0.00000000
Si      -0.47638476       0.18790515       2.30933588       0.00000000
Si       1.08198180      -2.11770000       0.15639372       0.00000000
Si       1.48434480      -1.30279275       2.72928706       0.00000000
Si      -2.78378181      -0.51264630       2.12769074       0.00000000
Si      -3.40115652      -1.00032003      -0.16723050       0.00000000
Si       3.21426135      -1.40069565       0.99522960       0.00000000
Si       3.58554303       0.79632036       0.13372247       0.00000000
Si      -1.47595545      -0.75311928      -3.28898116       0.00000000
