10
Lattice="16.28999089631971 0.0 0.0 0.0 16.28999089631971 0.0 0.0 0.0 34.40246978574605" Properties=species:S:1:pos:R:3:initial_magmoms:R:1 pbc="T T T"
Si      -1.15251587       1.50029271      -1.33933018       0.00000000
Si       1.33516098       1.36197432       1.35191461       0.00000000
Si      -1.38235963      -1.35047358       1.35236184       0.00000000
Si       1.41480279      -1.39036779      -1.35442255       0.00000000
Si      -2.48281917       0.08346996      -2.61914337       0.00000000
Si       2.69347005       0.01104462       2.71005607       0.00000000
Si      -0.02168199      -2.70329292       2.71022808       0.00000000
Si      -2.72108812      -2.69951364      -0.01625862       0.00000000
Si      -2.71199683       2.71120986       0.00837701       0.00000000
Si       2.69635338       2.72692971      -0.02802771       0.00000000
