10
Lattice="16.28999089631971 0.0 0.0 0.0 16.28999089631971 0.0 0.0 0.0 34.40246978574605" Properties=species:S:1:pos:R:3:initial_magmoms:R:1 pbc="T T T"
Si       2.29402296      -0.45455616       0.09601735       0.00000000
Si      -1.05873597       0.14322168       2.09899906       0.00000000
Si      -1.27443186      -1.43775540      -1.36505636       0.00000000
Si      -0.21014100       2.12862312      -1.05553717       0.00000000
Si      -0.48213513      -0.73487448      -3.46133763       0.00000000
Si      -1.17455787       1.50096060      -3.09508873       0.00000000
Si       3.24503316       1.70781102      -0.19347960       0.00000000
Si      -1.45525086       2.46053024       2.35075648       0.00000000
Si      -1.62888597       3.47277455       0.24356962       0.00000000
Si       1.88882550       2.85633651      -1.74826569       0.00000000
