10
Lattice="16.28999089631971 0.0 0.0 0.0 16.28999089631971 0.0 0.0 0.0 34.40246978574605" Properties=species:S:1:pos:R:3:initial_magmoms:R:1 pbc="T T T"
Si      -1.35746199       1.35579389       1.35600851       0.00000000
Si       1.35924432       1.35616856      -1.35876071       0.00000000
Si      -1.35764118      -1.35850718      -1.35872630       0.00000000
Si       1.36236331      -1.36143862       1.36213215       0.00000000
Si      -2.70238068      -0.02086097       2.72209694       0.00000000
Si      -2.71306692       2.71338620      -0.00154811       0.00000000
Si      -2.71326240      -0.00176746      -2.71545726       0.00000000
Si       0.00148239       2.71328846      -2.71559487       0.00000000
Si       2.71617084       2.71407038      -0.00165132       0.00000000
Si      -2.71379997      -2.71804907      -0.00299302       0.00000000
