10
Lattice="16.28999089631971 0.0 0.0 0.0 16.28999089631971 0.0 0.0 0.0 34.40246978574605" Properties=species:S:1:pos:R:3:initial_magmoms:R:1 pbc="T T T"
Si      -1.69200972      -0.86724702      -1.39202791       0.00000000
Si       1.00550025       1.79496252      -1.18795235       0.00000000
Si      -0.88356960       0.45380682       2.23082940       0.00000000
Si       1.89195318      -1.60419033      -0.06147725       0.00000000
Si      -3.09637062      -1.21889925       0.42022640       0.00000000
Si       2.27315547       0.39675924      -2.66103253       0.00000000
Si      -0.41506920      -2.36698913      -2.64008141       0.00000000
Si       0.54390681       2.33676792       2.88155248       0.00000000
Si       3.20339592      -0.91950534       1.82126777       0.00000000
Si       1.01009403      -3.60941993      -1.11484706       0.00000000
