10
Lattice="16.28999089631971 0.0 0.0 0.0 16.28999089631971 0.0 0.0 0.0 34.40246978574605" Properties=species:S:1:pos:R:3:initial_magmoms:R:1 pbc="T T T"
Si      -1.21080312       0.16249275      -1.99166330       0.00000000
Si      -0.57691035       1.45174851       1.77165938       0.00000000
Si      -0.09270639      -2.39078067       0.33239685       0.00000000
Si       2.50974233       1.39108455      -1.34176588       0.00000000
Si      -2.80784214       0.66038031       2.04374866       0.00000000
Si       3.28931657       0.97454925       1.18334241       0.00000000
Si      -3.11684715      -1.13568993      -1.52055561       0.00000000
Si       1.15502846       3.37367529      -0.99113571       0.00000000
Si       1.76093664      -2.86522204       1.73987148       0.00000000
Si      -0.43714215       3.70297764       0.79332140       0.00000000
