10
Lattice="16.28999089631971 0.0 0.0 0.0 16.28999089631971 0.0 0.0 0.0 34.40246978574605" Properties=species:S:1:pos:R:3:initial_magmoms:R:1 pbc="T T T"
Si       1.19733129      -1.82371437      -0.85221846       0.00000000
Si      -2.20551939       0.42037974      -0.70060669       0.00000000
Si      -0.27940608       0.27339507       2.33094064       0.00000000
Si       1.64550177       1.62691488      -0.48493749       0.00000000
Si       1.65055167      -1.06588728      -3.09543275       0.00000000
Si      -2.51498052      -0.85195071      -2.60946319       0.00000000
Si      -2.49535107       0.98903106       2.60691741       0.00000000
Si       1.29119427       1.92674862       3.02005690       0.00000000
Si       2.93223488      -2.36382235       0.64965660       0.00000000
Si       1.54634454       3.34707372       1.10776015       0.00000000
