10
Lattice="16.28999089631971 0.0 0.0 0.0 16.28999089631971 0.0 0.0 0.0 34.40246978574605" Properties=species:S:1:pos:R:3:initial_magmoms:R:1 pbc="T T T"
Si      -1.33659450      -1.36428750       1.37703531       0.00000000
Si       1.37689596       1.35508365       1.37614084       0.00000000
Si       1.47155715      -1.29687948      -1.36840716       0.00000000
Si      -1.43316162       1.33146315      -1.42842231       0.00000000
Si       0.15014493       2.72642472      -2.61441130       0.00000000
Si      -2.68749162      -2.71163340      -0.00897905       0.00000000
Si      -2.69842221      -0.00097740       2.73589922       0.00000000
Si      -2.70474273       2.73167010       0.00162036       0.00000000
Si       0.01928736       2.71586880       2.73634645       0.00000000
Si       0.01808190      -2.71671588       2.73662167       0.00000000
