10
Lattice="16.28999089631971 0.0 0.0 0.0 16.28999089631971 0.0 0.0 0.0 34.40246978574605" Properties=species:S:1:pos:R:3:initial_magmoms:R:1 pbc="T T T"
Si      -1.35700587      -1.35702216      -1.35735020       0.00000000
Si       1.35776193      -1.35711990       1.35683417       0.00000000
Si      -1.35773892       1.35782037       1.35693737       0.00000000
Si       1.35866133       1.35778779      -1.35721259       0.00000000
Si      -2.71454931       0.00009774       2.71404676       0.00000000
Si      -2.71168227      -0.00459378      -2.71693657       0.00000000
Si       2.71468845       0.00078192       2.71394355       0.00000000
Si       2.71363774      -0.00180819      -2.71521645       0.00000000
Si      -0.00148239      -2.71328846       2.71559487       0.00000000
Si       2.71472428      -2.71438804      -0.00044723       0.00000000
