10
Lattice="16.28999089631971 0.0 0.0 0.0 16.28999089631971 0.0 0.0 0.0 34.40246978574605" Properties=species:S:1:pos:R:3:initial_magmoms:R:1 pbc="T T T"
Si      -1.35827649      -1.35659862      -1.35748781       0.00000000
Si       1.35749457      -1.35749457       1.35752222       0.00000000
Si      -1.35757602       1.35786924       1.35796945       0.00000000
Si       1.35943308       1.36024758      -1.35704058       0.00000000
Si      -2.71248048       0.00120546       2.71497563       0.00000000
Si      -0.00188964       2.71366965      -2.71428758       0.00000000
Si      -2.71511946      -2.71441899       0.00051604       0.00000000
Si       0.00068418      -2.71521720       2.71463160       0.00000000
Si      -2.71534752       2.71500543       0.00048163       0.00000000
Si       2.71523349      -2.71531494       0.00058484       0.00000000
