10
Lattice="16.28999089631971 0.0 0.0 0.0 16.28999089631971 0.0 0.0 0.0 34.40246978574605" Properties=species:S:1:pos:R:3:initial_magmoms:R:1 pbc="T T T"
Si       1.35726651       1.35640314       1.35827907       0.00000000
Si      -1.35801748      -1.35827649       1.35807266       0.00000000
Si      -1.36181956       1.35723393      -1.35662775       0.00000000
Si       1.35868374      -1.36324494      -1.35731580       0.00000000
Si      -2.68847407      -0.01400940      -2.70085341       0.00000000
Si       2.71331127       2.71458189       0.00048163       0.00000000
Si      -0.00052128       2.71292031       2.71501003       0.00000000
Si       0.01537776       2.70855459      -2.72019793       0.00000000
Si      -2.71434004      -0.00079821       2.71476921       0.00000000
Si      -2.71381328      -2.71609686       0.00113528       0.00000000
