10
Lattice="16.28999089631971 0.0 0.0 0.0 16.28999089631971 0.0 0.0 0.0 34.40246978574605" Properties=species:S:1:pos:R:3:initial_magmoms:R:1 pbc="T T T"
Si      -1.33682256      -1.35746199      -1.37479227       0.00000000
Si       1.37643984       1.35917244      -1.37489547       0.00000000
Si       1.27698939      -1.25160957       1.57243457       0.00000000
Si      -1.35638685       1.40276448       1.39570898       0.00000000
Si       0.37493064       2.34232281       2.64778757       0.00000000
Si       2.14679394       0.52432623       3.09305898       0.00000000
Si      -2.68769850      -2.71480832       0.01788929       0.00000000
Si      -2.69669384       0.00107514      -2.73386259       0.00000000
Si      -2.69709132       2.73360861      -0.00529798       0.00000000
Si       2.73178413      -2.70584231       0.03161589       0.00000000
