10
Lattice="16.28999089631971 0.0 0.0 0.0 16.28999089631971 0.0 0.0 0.0 34.40246978574605" Properties=species:S:1:pos:R:3:initial_magmoms:R:1 pbc="T T T"
Si       1.30448691       1.35123921       1.35376306       0.00000000
Si      -0.77427999       1.86909831      -1.20595899       0.00000000
Si       1.81078011      -0.98409519      -1.25281518       0.00000000
Si      -1.58330655      -1.39496157       1.18598900       0.00000000
Si       2.68115255       2.50678665      -0.14030749       0.00000000
Si      -1.70025246       0.87164532      -3.16218773       0.00000000
Si       2.60894338      -0.02624319       2.64918190       0.00000000
Si      -0.15014493      -2.72642472       2.61441130       0.00000000
Si      -0.12429270       2.70961344       2.63447140       0.00000000
Si      -2.85488766       0.00524538       2.61603166       0.00000000
