10
Lattice="16.28999089631971 0.0 0.0 0.0 16.28999089631971 0.0 0.0 0.0 34.40246978574605" Properties=species:S:1:pos:R:3:initial_magmoms:R:1 pbc="T T T"
Si       1.35622395       1.35480672       1.35721259       0.00000000
Si      -1.36132272       1.35342207      -1.35724700       0.00000000
Si      -1.35943308      -1.36024758       1.35704058       0.00000000
Si       1.35760860      -1.36078515      -1.36020561       0.00000000
Si      -0.00200367       2.71208952       2.71439079       0.00000000
Si       2.71393498      -0.00247608       2.71404676       0.00000000
Si       2.71423980       2.71425609       0.00013761       0.00000000
Si      -2.71653669       2.71249677       0.00058484       0.00000000
Si      -2.71700910      -0.00237834       2.71501003       0.00000000
Si       2.71446174      -2.71777473       0.00041283       0.00000000
