10
Lattice="16.28999089631971 0.0 0.0 0.0 16.28999089631971 0.0 0.0 0.0 34.40246978574605" Properties=species:S:1:pos:R:3:initial_magmoms:R:1 pbc="T T T"
Si      -0.54143073       1.99948347       1.12279403       0.00000000
Si       0.86946246       0.08514783      -2.18982163       0.00000000
Si      -2.12612193      -1.01986803       0.26534640       0.00000000
Si       1.52119997      -1.31097033       1.33584865       0.00000000
Si       0.18915948      -2.23980984      -2.75495132       0.00000000
Si       0.67443858       1.66159629       3.16984534       0.00000000
Si       0.33265809      -3.33373221       1.69907013       0.00000000
Si       2.92608215       1.47375630      -1.88842143       0.00000000
Si      -1.96929810      -2.97992970       1.40898834       0.00000000
Si       0.03984534       3.85388820      -0.19244752       0.00000000
