10
Lattice="16.28999089631971 0.0 0.0 0.0 16.28999089631971 0.0 0.0 0.0 34.40246978574605" Properties=species:S:1:pos:R:3:initial_magmoms:R:1 pbc="T T T"
Si       0.37128168       2.19701601      -0.86150713       0.00000000
Si      -2.13227955      -0.71700435      -0.83883589       0.00000000
Si       1.74941568      -1.65659526      -0.22007272       0.00000000
Si      -1.72991655       0.09790290       1.73405746       0.00000000
Si      -3.21426135       1.40069565      -0.99522960       0.00000000
Si      -3.08175849      -1.85285718       1.02942568       0.00000000
Si      -1.64020752       2.87842671      -1.84208127       0.00000000
Si       1.49426541      -3.07692036       1.69222403       0.00000000
Si      -0.80394408       1.09535589       3.69028619       0.00000000
Si       3.87811047      -0.69136389      -0.55762994       0.00000000
