10
Lattice="16.28999089631971 0.0 0.0 0.0 16.28999089631971 0.0 0.0 0.0 34.40246978574605" Properties=species:S:1:pos:R:3:initial_magmoms:R:1 pbc="T T T"
Si       1.43374806       0.98142363      -1.56452199       0.00000000
Si       1.85666678      -1.19987253       0.92583978       0.00000000
Si      -1.59876576      -1.83756087      -0.13981172       0.00000000
Si      -1.29883428       2.15695890       0.92886720       0.00000000
Si      -2.22900957       0.53462151       2.40409207       0.00000000
Si       0.48000114      -2.35541997       2.41991034       0.00000000
Si      -0.12456963       1.18900710      -3.35871500       0.00000000
Si      -3.47540634      -0.80513325       0.85225286       0.00000000
Si       0.38850021       3.08019465       2.34199558       0.00000000
Si       3.16009288       0.29421369       2.27213444       0.00000000
