10
Lattice="16.28999089631971 0.0 0.0 0.0 16.28999089631971 0.0 0.0 0.0 34.40246978574605" Properties=species:S:1:pos:R:3:initial_magmoms:R:1 pbc="T T T"
Si      -2.14337304      -0.01391166       0.93433720       0.00000000
Si       1.14108192      -1.43435079       1.53077315       0.00000000
Si       0.61818921       2.30264756       0.16946666       0.00000000
Si       0.33606270      -0.31081320      -2.36066439       0.00000000
Si       2.35309280       1.76253957       1.67134172       0.00000000
Si      -3.49958070       1.13461383      -0.62044889       0.00000000
Si       1.95943029      -0.00091224       3.21986656       0.00000000
Si       2.16469732       1.11428554      -2.88299738       0.00000000
Si       1.07140959       3.06047465      -2.07374764       0.00000000
Si       2.67312451      -2.76418494       0.36841625       0.00000000
