10
Lattice="16.28999089631971 0.0 0.0 0.0 16.28999089631971 0.0 0.0 0.0 34.40246978574605" Properties=species:S:1:pos:R:3:initial_magmoms:R:1 pbc="T T T"
Si       1.74222202       0.52810551       1.37300334       0.00000000
Si       1.12873573      -0.90113022      -1.78965188       0.00000000
Si      -1.54803937       1.62750132      -0.50588860       0.00000000
Si      -0.23384784       1.27669617       2.71979408       0.00000000
Si      -3.11863972      -0.02585223      -1.19500486       0.00000000
Si      -1.26118876       2.94658407       1.44531737       0.00000000
Si       2.50641850      -1.45536489       2.39413802       0.00000000
Si      -3.29271466      -1.88527428       0.41317389       0.00000000
Si       1.04186930       0.49818078      -3.73869049       0.00000000
Si       0.09300124      -2.66306965      -2.87628890       0.00000000
