10
Lattice="16.28999089631971 0.0 0.0 0.0 16.28999089631971 0.0 0.0 0.0 34.40246978574605" Properties=species:S:1:pos:R:3:initial_magmoms:R:1 pbc="T T T"
Si       1.32821655      -1.30455207       1.42385022       0.00000000
Si       0.91629132       1.71838323      -1.34041183       0.00000000
Si      -1.30342611      -1.49408622      -1.34629466       0.00000000
Si      -1.39494363       1.39351176       1.41539408       0.00000000
Si       2.21220969       0.36183348      -2.73598320       0.00000000
Si       2.74950276      -2.56632660      -0.00465122       0.00000000
Si      -2.68009174      -2.64963366       0.14777589       0.00000000
Si       2.66125983       2.77583229       0.03241403       0.00000000
Si      -0.04898077      -2.65587273       2.78742039       0.00000000
Si       2.67220671       0.05879061       2.78872768       0.00000000
