10
Lattice="16.28999089631971 0.0 0.0 0.0 16.28999089631971 0.0 0.0 0.0 34.40246978574605" Properties=species:S:1:pos:R:3:initial_magmoms:R:1 pbc="T T T"
Si       1.34785025      -1.34853507      -1.35796945       0.00000000
Si      -1.36478402       1.36749663      -1.35308430       0.00000000
Si      -1.36245455      -1.35264015       1.37427623       0.00000000
Si       1.33305242       1.37567421       1.38029666       0.00000000
Si      -2.29655573       0.36517293       2.73833492       0.00000000
Si      -0.54156887       2.21666175       2.80400927       0.00000000
Si       2.70231488      -2.70552465       0.00185773       0.00000000
Si       2.70575207       0.00759114      -2.71332431       0.00000000
Si      -0.00806668      -2.70612738      -2.71356513       0.00000000
Si      -2.72991860      -2.70275535       0.00774056       0.00000000
