10
Lattice="16.28999089631971 0.0 0.0 0.0 16.28999089631971 0.0 0.0 0.0 34.40246978574605" Properties=species:S:1:pos:R:3:initial_magmoms:R:1 pbc="T T T"
Si      -1.02470616      -0.13326849      -2.03903552       0.00000000
Si       0.39467412      -2.06689149       1.01511424       0.00000000
Si      -1.56067974       0.71726499       1.58870694       0.00000000
Si       2.18621574       1.08185148       0.19372042       0.00000000
Si       0.41633982      -1.74710250      -2.86115180       0.00000000
Si      -0.04891887       0.41759415       3.44134978       0.00000000
Si       1.93991094       1.43363403       2.67954106       0.00000000
Si      -2.26965312       2.90854692       0.65787880       0.00000000
Si      -2.04714801      -2.87371890       1.33172035       0.00000000
Si       1.96667541       2.88867312      -1.48374495       0.00000000
