10
Lattice="16.28999089631971 0.0 0.0 0.0 16.28999089631971 0.0 0.0 0.0 34.40246978574605" Properties=species:S:1:pos:R:3:initial_magmoms:R:1 pbc="T T T"
Si      -0.70442847       1.14267834       1.93906189       0.00000000
Si       1.98882981       1.01603988      -0.76180872       0.00000000
Si       0.60978357      -2.30169555      -0.05473436       0.00000000
Si      -1.51176087       0.29967084      -1.85264284       0.00000000
Si       0.04891887      -0.41759415      -3.44134978       0.00000000
Si       0.44359299      -2.48448564      -2.42623554       0.00000000
Si      -2.20819095       2.73414618       0.89198774       0.00000000
Si       1.46101752       3.30048432      -0.78509920       0.00000000
Si      -1.47616722      -0.65243079       3.33728225       0.00000000
Si       3.71193714       0.51166890       0.80728881       0.00000000
