10
Lattice="16.28999089631971 0.0 0.0 0.0 16.28999089631971 0.0 0.0 0.0 34.40246978574605" Properties=species:S:1:pos:R:3:initial_magmoms:R:1 pbc="T T T"
Si       1.06674413       0.53193366      -2.03783144       0.00000000
Si       1.97088800      -0.55550529       1.18427128       0.00000000
Si      -1.77019913      -1.62694746       0.21780216       0.00000000
Si      -0.89982669       1.86393438       1.33030985       0.00000000
Si       0.58744509      -1.88001261       2.77209206       0.00000000
Si       0.92891444       2.95047738      -1.68696045       0.00000000
Si      -0.74285821      -3.29683536       1.49227887       0.00000000
Si      -2.27649233       0.70838694       2.82438040       0.00000000
Si      -3.58097924      -0.64285227       1.47061734       0.00000000
Si       3.79054616      -0.90297099      -0.67876111       0.00000000
