10
Lattice="16.28999089631971 0.0 0.0 0.0 16.28999089631971 0.0 0.0 0.0 34.40246978574605" Properties=species:S:1:pos:R:3:initial_magmoms:R:1 pbc="T T T"
Si      -1.37666564      -1.15554744       1.49407055       0.00000000
Si       1.30342611       1.49408622       1.34629466       0.00000000
Si      -1.85666678       1.19987253      -0.92583978       0.00000000
Si       0.89982669      -1.86393438      -1.33030985       0.00000000
Si      -0.42291872       2.18129616      -2.49036178       0.00000000
Si      -3.45543254      -0.63768834      -1.06565150       0.00000000
Si      -2.68115255      -2.50678665       0.14030749       0.00000000
Si       1.82874114       1.08654300      -3.01727030       0.00000000
Si       2.87071470      -2.41943967      -0.14603857       0.00000000
Si      -0.87037244      -3.49088184      -1.11250769       0.00000000
