10
Lattice="16.28999089631971 0.0 0.0 0.0 16.28999089631971 0.0 0.0 0.0 34.40246978574605" Properties=species:S:1:pos:R:3:initial_magmoms:R:1 pbc="T T T"
Si       1.62749187       1.80675648      -0.29410688       0.00000000
Si      -1.50848692       1.16804187       1.58041594       0.00000000
Si      -0.60681913      -0.43008858      -2.39647738       0.00000000
Si       0.25383762      -2.48704317       0.47877944       0.00000000
Si       0.23131995      -0.42691203       2.68363496       0.00000000
Si       3.57141015       0.60738894       0.53860537       0.00000000
Si       1.66886847      -2.42828514       2.34415120       0.00000000
Si      -3.83450344       0.75860901       0.94434832       0.00000000
Si      -0.26404495       3.06795176       2.69399011       0.00000000
Si      -2.36180599      -2.28157740      -2.46215174       0.00000000
