10
Lattice="16.28999089631971 0.0 0.0 0.0 16.28999089631971 0.0 0.0 0.0 34.40246978574605" Properties=species:S:1:pos:R:3:initial_magmoms:R:1 pbc="T T T"
Si       1.94391828      -1.19936754       0.83271225       0.00000000
Si       1.07461872       0.99360547      -1.94611440       0.00000000
Si      -1.62749187      -1.80675648       0.29410688       0.00000000
Si      -0.40936444       2.06369606       1.34647902       0.00000000
Si       2.58535332       2.27870940      -0.50062502       0.00000000
Si      -3.13597880      -0.63871461       1.87452282       0.00000000
Si       1.66060260      -0.91875600       3.22681586       0.00000000
Si      -1.89153683       1.26119528       2.98809699       0.00000000
Si      -2.23431101      -2.23684506      -2.10237051       0.00000000
Si       1.78180020       3.08526803       1.61172221       0.00000000
