10
Lattice="16.28999089631971 0.0 0.0 0.0 16.28999089631971 0.0 0.0 0.0 34.529650657227435" Properties=species:S:1:pos:R:3:initial_magmoms:R:1 pbc="T T T"
Si       2.28319011       0.22542102      -0.24364135       0.00000000
Si      -1.27714089      -1.23877305      -1.55511275       0.00000000
Si      -0.16288371      -1.13536413       2.06977748       0.00000000
Si      -0.54125154       2.31469401       0.08421787       0.00000000
Si       2.30703867       1.37033109      -2.24104464       0.00000000
Si      -3.37861835       0.46853298       0.91051287       0.00000000
Si       2.74908411       1.35949824       1.78176550       0.00000000
Si      -2.74076711       2.16995085      -0.63172031       0.00000000
Si       1.38010509       0.16320951       3.34571784       0.00000000
Si      -3.24750014      -1.59267330      -0.30506963       0.00000000
