10
Lattice="16.28999089631971 0.0 0.0 0.0 16.28999089631971 0.0 0.0 0.0 34.529650657227435" Properties=species:S:1:pos:R:3:initial_magmoms:R:1 pbc="T T T"
Si      -1.38912975       1.23568772       1.41435600       0.00000000
Si       1.04054004       1.43993174      -1.54143696       0.00000000
Si      -1.65952746      -0.99875782      -1.38035605       0.00000000
Si       1.32691824      -1.49672561       1.38668047       0.00000000
Si      -0.29677122      -1.30207599      -3.33266359       0.00000000
Si       1.89201834      -0.25768825      -3.13049238       0.00000000
Si       2.66045022       2.52790826      -0.17674702       0.00000000
Si      -2.78225055       2.51451788      -0.06416994       0.00000000
Si      -0.03655476       2.58026432       2.77982834       0.00000000
Si       2.68027515      -0.13479975       2.77482154       0.00000000
