10
Lattice="16.28999089631971 0.0 0.0 0.0 16.28999089631971 0.0 0.0 0.0 34.529650657227435" Properties=species:S:1:pos:R:3:initial_magmoms:R:1 pbc="T T T"
Si       1.68762771       1.24759897       1.07169737       0.00000000
Si       1.24129800      -1.86624171      -0.76541919       0.00000000
Si      -0.61222707       1.39585426      -1.87837952       0.00000000
Si      -1.60699221      -0.92187879       1.55984331       0.00000000
Si       1.21744944      -3.01115178       1.23198409       0.00000000
Si       3.41826102       0.94506109      -0.61200387       0.00000000
Si      -1.06574067      -3.23657280       1.47562545       0.00000000
Si       3.38325381      -1.23553623      -1.48795254       0.00000000
Si      -0.01995525      -3.30621255      -2.22377980       0.00000000
Si       1.88051760       0.49737931       3.48373293       0.00000000
