10
Lattice="16.28999089631971 0.0 0.0 0.0 16.28999089631971 0.0 0.0 0.0 34.529650657227435" Properties=species:S:1:pos:R:3:initial_magmoms:R:1 pbc="T T T"
Si       0.51904827      -2.26325115      -0.63493157       0.00000000
Si       2.00204100       1.31390253       0.25520879       0.00000000
Si      -0.64562157       0.39291480      -2.30399223       0.00000000
Si      -1.81170864       0.43298820       1.61567779       0.00000000
Si       0.85970475      -3.09270537       1.50141911       0.00000000
Si       1.75832631       2.73803949      -1.60559512       0.00000000
Si      -1.56545271      -2.93536026      -1.46312570       0.00000000
Si       1.45674954       0.91202823      -3.24278489       0.00000000
Si      -3.85496334      -0.34428915       0.62595386       0.00000000
Si       1.77772770       2.92118796       1.98131246       0.00000000
