10
Lattice="16.28999089631971 0.0 0.0 0.0 16.28999089631971 0.0 0.0 0.0 34.529650657227435" Properties=species:S:1:pos:R:3:initial_magmoms:R:1 pbc="T T T"
Si      -1.05829614      -1.85543100      -0.99683704       0.00000000
Si       2.10237111       0.51911343      -0.93879267       0.00000000
Si      -1.28933721       1.84630860      -0.89124531       0.00000000
Si       0.64562157      -0.39291480       2.30399223       0.00000000
Si       1.16466984      -2.65616595       1.66906066       0.00000000
Si       2.40394788       2.34512469       0.69839710       0.00000000
Si      -0.91983114      -3.32827506       0.84086652       0.00000000
Si      -3.52292427       0.93555099      -0.66062165       0.00000000
Si       1.60682931       1.29290472      -3.15131580       0.00000000
Si       2.64766257       0.92098773       2.55920102       0.00000000
