10
Lattice="16.28999089631971 0.0 0.0 0.0 16.28999089631971 0.0 0.0 0.0 34.529650657227435" Properties=species:S:1:pos:R:3:initial_magmoms:R:1 pbc="T T T"
Si      -0.51846183       2.26748655       0.32295600       0.00000000
Si       0.67557888      -0.80580114       2.15651601       0.00000000
Si      -2.04325470      -0.77727735      -0.98972393       0.00000000
Si       1.81170864      -0.43298820      -1.61567779       0.00000000
Si       1.00421334      -2.99621970       1.43377549       0.00000000
Si      -1.48437738      -3.06581058      -1.39510226       0.00000000
Si      -1.62955386       2.39533047       2.44383739       0.00000000
Si       1.46261394       3.50305047       0.17074922       0.00000000
Si      -1.87097166       2.97676944      -1.51523098       0.00000000
Si      -3.74507100      -0.76825269       0.67578017       0.00000000
