10
Lattice="16.28999089631971 0.0 0.0 0.0 16.28999089631971 0.0 0.0 0.0 34.529650657227435" Properties=species:S:1:pos:R:3:initial_magmoms:R:1 pbc="T T T"
Si       1.35949824      -1.35397593      -1.35452989       0.00000000
Si      -1.35790182      -1.35571896       1.35715415       0.00000000
Si       1.35744570       1.35850455       1.35701603       0.00000000
Si      -1.35716877       1.35791811      -1.36309325       0.00000000
Si       2.71230129      -2.71318095       0.00072512       0.00000000
Si      -0.00035838      -2.71355562       2.71461906       0.00000000
Si      -2.71586880      -2.71318095       0.00003453       0.00000000
Si       2.71528236       0.00120546       2.71492983       0.00000000
Si      -2.71627605       0.00100998       2.71410112       0.00000000
Si       2.71433754       2.71730232      -0.00024171       0.00000000
