10
Lattice="16.28999089631971 0.0 0.0 0.0 16.28999089631971 0.0 0.0 0.0 34.529650657227435" Properties=species:S:1:pos:R:3:initial_magmoms:R:1 pbc="T T T"
Si      -1.35648459      -1.35544203      -1.35794833       0.00000000
Si      -1.35239580       1.35967743       1.36002011       0.00000000
Si       1.36210464      -1.35053874       1.36019276       0.00000000
Si       1.35915615       1.35931905      -1.35763756       0.00000000
Si       0.00107514      -2.71285515      -2.71492983       0.00000000
Si      -2.71445157      -2.71451673      -0.00020718       0.00000000
Si      -2.71402803       0.00239463      -2.71541325       0.00000000
Si       2.71590138      -2.71409319      -0.00075965       0.00000000
Si       2.71549413       0.00237834      -2.71513701       0.00000000
Si      -2.71508688       2.71652040      -0.00037983       0.00000000
