10
Lattice="16.28999089631971 0.0 0.0 0.0 16.28999089631971 0.0 0.0 0.0 34.529650657227435" Properties=species:S:1:pos:R:3:initial_magmoms:R:1 pbc="T T T"
Si       0.56707119       2.24862273      -0.18414673       0.00000000
Si      -1.96744104      -0.41172975      -1.24904175       0.00000000
Si       1.50930108      -1.58822613      -0.94221110       0.00000000
Si       0.01529631       0.12849552       2.43292602       0.00000000
Si       3.06511011      -1.44658458       0.82543176       0.00000000
Si       1.92968082      -1.42635240       2.85563823       0.00000000
Si       0.02489112      -3.42067194      -1.52413963       0.00000000
Si       1.05933870       2.69707014      -2.42425907       0.00000000
Si      -1.29230199       3.56366556       0.58624474       0.00000000
Si      -3.83570856       0.47034117      -0.14046670       0.00000000
