10
Lattice="16.28999089631971 0.0 0.0 0.0 16.28999089631971 0.0 0.0 0.0 34.529650657227435" Properties=species:S:1:pos:R:3:initial_magmoms:R:1 pbc="T T T"
Si      -1.95611949      -1.04927148       0.96945501       0.00000000
Si       0.56130453       2.19827034       0.86855932       0.00000000
Si      -0.01529631      -0.12849552      -2.43292602       0.00000000
Si       1.91438451      -1.55484792       0.42271222       0.00000000
Si       0.55177488       2.12012721      -2.61707275       0.00000000
Si       2.09518722       2.78762625      -0.91027116       0.00000000
Si      -1.43457885       3.32770491       0.48227590       0.00000000
Si       3.04981380      -1.57508010      -1.60749426       0.00000000
Si       3.58109586      -0.30716424       1.42234616       0.00000000
Si      -1.49191965      -3.34919142       1.43484591       0.00000000
