10
Lattice="16.28999089631971 0.0 0.0 0.0 16.28999089631971 0.0 0.0 0.0 34.529650657227435" Properties=species:S:1:pos:R:3:initial_magmoms:R:1 pbc="T T T"
Si      -1.61596800       1.54602430      -0.61977305       0.00000000
Si       1.46188089       0.15405453       1.83121199       0.00000000
Si       1.01081079      -0.91641024      -1.93949703       0.00000000
Si       0.15682383      -2.46685986       0.17565243       0.00000000
Si       1.11755916      -2.06620731       2.46386460       0.00000000
Si       2.05240968       2.18737626      -1.76211812       0.00000000
Si      -0.89795367      -0.37382292      -3.59025696       0.00000000
Si      -2.62690911       0.87612507      -2.57957352       0.00000000
Si      -0.36277830      -3.15794682      -2.16974087       0.00000000
Si      -3.75792381       0.91531881       0.10276030       0.00000000
