10
Lattice="16.28999089631971 0.0 0.0 0.0 16.28999089631971 0.0 0.0 0.0 34.529650657227435" Properties=species:S:1:pos:R:3:initial_magmoms:R:1 pbc="T T T"
Si       2.05508124       1.00853019      -0.46735908       0.00000000
Si       0.64345500      -2.21837220      -0.58911070       0.00000000
Si      -1.53948645       1.06295508      -1.48360180       0.00000000
Si      -0.48294963      -0.01581759       2.35530332       0.00000000
Si       1.98132012       1.40007663      -2.74307151       0.00000000
Si      -0.95552253      -2.37511458       2.64417854       0.00000000
Si       0.91274499      -3.25718550       1.53560348       0.00000000
Si       2.02484700       3.15902263       0.38569641       0.00000000
Si      -1.33248942      -3.32073279      -1.19904279       0.00000000
Si       1.58788404       0.71820981       3.37088997       0.00000000
