10
Lattice="16.28999089631971 0.0 0.0 0.0 16.28999089631971 0.0 0.0 0.0 34.529650657227435" Properties=species:S:1:pos:R:3:initial_magmoms:R:1 pbc="T T T"
Si      -1.90184121      -1.02897414       0.85008594       0.00000000
Si      -0.80013222       2.19721149      -0.10680027       0.00000000
Si       1.52715492       0.26665101       1.87724004       0.00000000
Si       0.35940627      -1.05568974      -2.16511390       0.00000000
Si       2.73401586       2.04563304       0.74597899       0.00000000
Si       1.25333631       3.25643616      -0.75606165       0.00000000
Si      -2.88754911       2.03388795      -1.21206047       0.00000000
Si      -1.27842291      -0.12424383      -3.62723824       0.00000000
Si      -3.47338638      -1.72835271      -0.76849233       0.00000000
Si      -0.52543395      -3.40265031      -1.98062187       0.00000000
