10
Lattice="16.28999089631971 0.0 0.0 0.0 16.28999089631971 0.0 0.0 0.0 34.529650657227435" Properties=species:S:1:pos:R:3:initial_magmoms:R:1 pbc="T T T"
Si      -2.10237111      -0.51911343       0.93879267       0.00000000
Si      -0.49554180       0.77379129      -2.21252313       0.00000000
Si       0.30157677       1.82601126       1.63718977       0.00000000
Si       1.82814525      -1.71963756      -0.09944545       0.00000000
Si       0.54529146       0.40187430       3.49799369       0.00000000
Si      -3.39170832       1.32719517       0.04754736       0.00000000
Si      -1.45674954      -0.91202823       3.24278489       0.00000000
Si       1.06675065      -3.55828986       1.28108528       0.00000000
Si      -1.30378644      -1.00098792      -3.58504298       0.00000000
Si      -3.16066725      -2.37454443      -0.05804438       0.00000000
