10
Lattice="16.28999089631971 0.0 0.0 0.0 16.28999089631971 0.0 0.0 0.0 34.529650657227435" Properties=species:S:1:pos:R:3:initial_magmoms:R:1 pbc="T T T"
Si       1.39903896      -1.29932298       1.42179714       0.00000000
Si      -1.30316607       1.44679635       1.42337860       0.00000000
Si       1.95583116       0.72658287      -1.21655451       0.00000000
Si      -1.73865029      -1.00406673      -1.43828993       0.00000000
Si       0.45430041       1.36687761      -2.84416545       0.00000000
Si      -3.55135262       0.72438372      -1.20826532       0.00000000
Si      -2.72724152      -2.68721469      -0.01685738       0.00000000
Si       2.77210677       2.65269618      -0.02907053       0.00000000
Si       2.73314109      -2.69910639      -0.04465377       0.00000000
Si       0.05085575      -2.63142144       2.80110553       0.00000000
