10
Lattice="16.28999089631971 0.0 0.0 0.0 16.28999089631971 0.0 0.0 0.0 34.529650657227435" Properties=species:S:1:pos:R:3:initial_magmoms:R:1 pbc="T T T"
Si      -2.12682240       1.01485071      -0.19488546       0.00000000
Si       0.22431330      -1.60728543      -1.72610367       0.00000000
Si       0.56674539      -0.84615147       2.13942382       0.00000000
Si       1.33793028       1.96304274      -0.53230939       0.00000000
Si      -0.01940139      -0.18314847      -3.58690759       0.00000000
Si      -1.98444780       1.69574013      -2.52325563       0.00000000
Si       0.75857643       1.30359096       3.33390869       0.00000000
Si       3.50840988       1.19571858      -0.31083609       0.00000000
Si       2.61788445      -2.02502619       1.75189733       0.00000000
Si       2.51590905      -2.32147161      -1.95510444       0.00000000
