10
Lattice="16.28999089631971 0.0 0.0 0.0 16.28999089631971 0.0 0.0 0.0 34.529650657227435" Properties=species:S:1:pos:R:3:initial_magmoms:R:1 pbc="T T T"
Si       1.66671135       1.24768368       0.99963395       0.00000000
Si       1.13542929      -0.02023218      -2.03020647       0.00000000
Si      -0.16768926      -2.27100519       0.87867651       0.00000000
Si      -1.91438451       1.55484792      -0.42271222       0.00000000
Si      -1.58988771      -1.56862926       2.64987593       0.00000000
Si      -0.08659764      -3.27430629      -1.46043239       0.00000000
Si       1.96687089      -2.21508162      -2.10969377       0.00000000
Si       0.78411915       1.72520874       3.10534683       0.00000000
Si      -1.92968082       1.42635240      -2.85563823       0.00000000
Si       1.98158076       3.24623862      -0.28497337       0.00000000
