10
Lattice="16.28999089631971 0.0 0.0 0.0 16.28999089631971 0.0 0.0 0.0 34.529650657227435" Properties=species:S:1:pos:R:3:initial_magmoms:R:1 pbc="T T T"
Si      -1.50153075       0.64029474      -1.62761094       0.00000000
Si       0.81627561       1.92611331       1.18748398       0.00000000
Si       1.77433938      -1.60981038      -0.29017323       0.00000000
Si      -1.95583116      -0.72658287       1.21655451       0.00000000
Si      -0.55679220      -2.02590585       2.63835165       0.00000000
Si       2.18522205       0.70773534       2.65244667       0.00000000
Si       2.96782623       0.23376150      -2.06044035       0.00000000
Si       0.77730993      -3.42568926       1.17190074       0.00000000
Si       3.44008962      -0.73813248       1.20144087       0.00000000
Si      -1.85772463       2.91882591      -1.55174925       0.00000000
