10
Lattice="16.28999089631971 0.0 0.0 0.0 16.28999089631971 0.0 0.0 0.0 34.529650657227435" Properties=species:S:1:pos:R:3:initial_magmoms:R:1 pbc="T T T"
Si       1.45986093      -0.28637820       1.87986429       0.00000000
Si       1.33825608      -0.83549781      -1.83690938       0.00000000
Si      -1.30482900       2.04935109       0.17361518       0.00000000
Si      -2.34642789      -1.05443541      -0.00376373       0.00000000
Si      -0.53817273      -1.80475281      -3.12269070       0.00000000
Si       0.33181101       0.74117871       3.66546258       0.00000000
Si      -3.35723868      -0.13802517       1.93573330       0.00000000
Si       2.21658030       1.01095740      -3.08280893       0.00000000
Si       1.94214267      -2.57035023       2.39729140       0.00000000
Si       3.72172743       0.86276727       1.40515039       0.00000000
