10
Lattice="16.28999089631971 0.0 0.0 0.0 16.28999089631971 0.0 0.0 0.0 34.529650657227435" Properties=species:S:1:pos:R:3:initial_magmoms:R:1 pbc="T T T"
Si      -1.20042639      -0.67075704       1.87527185       0.00000000
Si       0.56941695      -1.98628857      -1.12335375       0.00000000
Si       1.84086774       1.25516079       0.84711639       0.00000000
Si      -1.41317379       0.69128244      -1.82779355       0.00000000
Si      -3.23636688      -1.07777898       0.71939114       0.00000000
Si       0.98820027      -1.16071137      -3.31709274       0.00000000
Si      -3.55270239       0.66689631      -0.83340811       0.00000000
Si      -0.00993690      -2.64574035       2.74286433       0.00000000
Si       2.12494905       3.21852933      -0.44170354       0.00000000
Si      -1.73657916       1.25434629       3.24185259       0.00000000
