10
Lattice="16.28999089631971 0.0 0.0 0.0 16.28999089631971 0.0 0.0 0.0 34.529650657227435" Properties=species:S:1:pos:R:3:initial_magmoms:R:1 pbc="T T T"
Si       1.80077805      -1.09623555       1.04801001       0.00000000
Si       0.50368680       2.29692258       0.14288377       0.00000000
Si      -1.54341234      -0.66749904      -1.70680159       0.00000000
Si      -1.53388269      -0.58935591       1.77883048       0.00000000
Si       2.30216796       0.97459812       2.49756556       0.00000000
Si       2.43276489      -2.44840329      -0.85157072       0.00000000
Si      -3.40278552       0.64754379      -0.93641012       0.00000000
Si      -2.09518722      -2.78762625       0.91027116       0.00000000
Si       0.00729792       3.07334863      -2.00127061       0.00000000
Si      -3.52976607       0.54007866       1.39254706       0.00000000
