10
Lattice="16.28999089631971 0.0 0.0 0.0 16.28999089631971 0.0 0.0 0.0 34.529650657227435" Properties=species:S:1:pos:R:3:initial_magmoms:R:1 pbc="T T T"
Si      -0.49638888       0.77642605      -2.14415439       0.00000000
Si      -0.50368680      -2.29692258      -0.14288377       0.00000000
Si       2.32808535       0.29831081       0.48700647       0.00000000
Si      -1.60704108       1.42459375       2.36825194       0.00000000
Si       1.79848116      -1.32232446       2.35468178       0.00000000
Si      -2.88254808       0.41588437      -1.86215057       0.00000000
Si      -1.87279614       3.15010223       0.68655343       0.00000000
Si       1.29709125      -3.39315813       0.90512624       0.00000000
Si       0.33954876       0.18573858       3.75302983       0.00000000
Si      -2.03756949      -2.88627849       1.63594670       0.00000000
