10
Lattice="16.28999089631971 0.0 0.0 0.0 16.28999089631971 0.0 0.0 0.0 34.529650657227435" Properties=species:S:1:pos:R:3:initial_magmoms:R:1 pbc="T T T"
Si       1.35597909      -1.35643747       1.36416367       0.00000000
Si      -1.36241415       1.35862510       1.36347308       0.00000000
Si       1.36664181       1.37081002      -1.37189141       0.00000000
Si      -1.38544821      -1.35985146      -1.36488879       0.00000000
Si       2.71094012      -2.70967927       0.00597363       0.00000000
Si      -2.71914309      -2.71037974       0.01032437       0.00000000
Si       2.71293727       2.71787899       0.00752747       0.00000000
Si       2.71275645       0.00153778       2.72100705       0.00000000
Si      -2.71547784       2.71892155       0.00514492       0.00000000
Si      -0.00223173      -2.71344226       2.72124876       0.00000000
