10
Lattice="16.28999089631971 0.0 0.0 0.0 16.28999089631971 0.0 0.0 0.0 34.529650657227435" Properties=species:S:1:pos:R:3:initial_magmoms:R:1 pbc="T T T"
Si      -2.24398008       0.78032358       0.01377734       0.00000000
Si       0.68027040      -1.38091959       1.84585257       0.00000000
Si      -0.48645198      -1.48294386      -1.86477483       0.00000000
Si       1.66173722       1.79507655      -0.22309620       0.00000000
Si      -2.52682335       2.02491216      -1.95510444       0.00000000
Si      -2.42484795       2.32135758       1.75189733       0.00000000
Si      -3.63983760      -1.15466778      -0.11529457       0.00000000
Si       2.63664957      -2.57313908       1.01348034       0.00000000
Si      -1.24499583      -2.25119655       2.94192788       0.00000000
Si      -0.09293445      -0.45431181      -3.93983534       0.00000000
