10
Lattice="16.28999089631971 0.0 0.0 0.0 16.28999089631971 0.0 0.0 0.0 34.529650657227435" Properties=species:S:1:pos:R:3:initial_magmoms:R:1 pbc="T T T"
Si       0.74526750      -0.09143577       2.34964045       0.00000000
Si       2.51033787       0.10805157      -0.27782572       0.00000000
Si      -1.48727700       2.05001505      -0.02783091       0.00000000
Si      -0.71539164      -2.09740152      -1.25453197       0.00000000
Si       2.61022815      -0.79512467      -2.49856692       0.00000000
Si      -1.15755111      -0.91137174       3.61044788       0.00000000
Si       0.87649974      -2.31369218      -3.08315423       0.00000000
Si      -1.24499583      -3.71803679       0.61314335       0.00000000
Si      -3.01443192       1.78336404      -1.90507095       0.00000000
Si      -0.28041606       3.82899708      -1.15909196       0.00000000
