10
Lattice="16.28999089631971 0.0 0.0 0.0 16.28999089631971 0.0 0.0 0.0 34.529650657227435" Properties=species:S:1:pos:R:3:initial_magmoms:R:1 pbc="T T T"
Si      -1.33345053      -1.34252406       1.37308614       0.00000000
Si       1.38150603       1.37078721       1.36904617       0.00000000
Si      -1.42472340       1.24890543      -1.47465516       0.00000000
Si       1.31686731      -1.39935987      -1.44249423       0.00000000
Si       0.49275621       2.01223854      -2.63390216       0.00000000
Si       2.30545854       0.28378809      -2.86392678       0.00000000
Si      -2.68908804      -2.70712107      -0.02619766       0.00000000
Si      -2.69487099       2.72039742      -0.01710600       0.00000000
Si      -2.69389359       0.01101204       2.73175959       0.00000000
Si       0.01961316      -2.70282051       2.73141429       0.00000000
