10
Lattice="16.28999089631971 0.0 0.0 0.0 16.28999089631971 0.0 0.0 0.0 34.529650657227435" Properties=species:S:1:pos:R:3:initial_magmoms:R:1 pbc="T T T"
Si      -0.91339659       0.92745486       2.00845278       0.00000000
Si       1.83058616      -1.24165638       0.92418662       0.00000000
Si       1.16059614       1.58172642      -1.38805820       0.00000000
Si      -1.59659919      -1.13956695      -1.42134480       0.00000000
Si       3.47746607       0.42878538       0.50800050       0.00000000
Si       2.50391376       2.70177795       0.23500893       0.00000000
Si      -0.20214261      -2.39373405      -2.90380712       0.00000000
Si       2.53224696       0.31760613      -2.89897297       0.00000000
Si      -2.00145456      -1.01784807       3.15183374       0.00000000
Si      -2.84750829      -2.71090035      -0.15918178       0.00000000
