10
Lattice="16.28999089631971 0.0 0.0 0.0 16.28999089631971 0.0 0.0 0.0 34.529650657227435" Properties=species:S:1:pos:R:3:initial_magmoms:R:1 pbc="T T T"
Si       0.53020692      -2.25375408      -0.01398452       0.00000000
Si       1.54660422       1.49884290      -0.96634734       0.00000000
Si       0.12325014       0.88109352       2.18921560       0.00000000
Si      -2.36934792      -0.42300243      -0.13811868       0.00000000
Si      -0.68660721      -2.70943425       2.04294792       0.00000000
Si      -1.72351458       2.28174030       2.05496425       0.00000000
Si       0.37768365       2.02828419      -2.91855129       0.00000000
Si       2.50107605       2.44027458       1.03060706       0.00000000
Si      -0.61121709      -0.83968434       3.59674854       0.00000000
Si       2.80753982      -2.52206667      -0.13418230       0.00000000
