10
Lattice="16.28999089631971 0.0 0.0 0.0 16.28999089631971 0.0 0.0 0.0 34.529650657227435" Properties=species:S:1:pos:R:3:initial_magmoms:R:1 pbc="T T T"
Si       1.54951524      -0.61489863      -1.56909834       0.00000000
Si       1.54383981       1.34245890       1.21715395       0.00000000
Si      -1.31561298      -1.58501700       1.19651902       0.00000000
Si      -1.39805667       0.97751403      -1.75445361       0.00000000
Si      -2.60534115       2.56142331      -0.41197457       0.00000000
Si      -2.58548364      -0.11210778       2.61396542       0.00000000
Si       0.14540454       2.61241101       2.63242153       0.00000000
Si      -2.63309931      -0.94229505      -2.58706754       0.00000000
Si       1.90570913      -2.89342980      -1.64496002       0.00000000
Si       0.14824265      -2.81351106       2.62258403       0.00000000
