10
Lattice="16.28999089631971 0.0 0.0 0.0 16.28999089631971 0.0 0.0 0.0 34.529650657227435" Properties=species:S:1:pos:R:3:initial_magmoms:R:1 pbc="T T T"
Si       0.19922670       1.86895170       1.36264437       0.00000000
Si       1.84676472      -1.40064678       0.13425136       0.00000000
Si      -1.79374077      -0.92712906      -1.20442942       0.00000000
Si      -2.36700216      -0.99481401       1.06579279       0.00000000
Si      -1.01639826       1.12697478      -2.38959128       0.00000000
Si       3.15254084       0.31390830       1.17065940       0.00000000
Si      -0.88632261      -2.20561713       2.56783344       0.00000000
Si       1.72351458      -2.28174030      -2.05496425       0.00000000
Si      -0.64583334      -2.70474273      -2.19308293       0.00000000
Si      -3.19844376       1.20003543       1.14528009       0.00000000
