10
Lattice="16.28999089631971 0.0 0.0 0.0 16.28999089631971 0.0 0.0 0.0 34.529650657227435" Properties=species:S:1:pos:R:3:initial_magmoms:R:1 pbc="T T T"
Si      -1.22131017       1.48457869       1.36449516       0.00000000
Si       1.06886835       1.75670287      -1.18724331       0.00000000
Si       1.52021538      -1.22354190       1.36902200       0.00000000
Si      -1.23053031      -1.27452960      -1.67537410       0.00000000
Si      -2.58512526      -2.55531456      -0.07710475       0.00000000
Si      -2.55500505       0.13405041       2.73970832       0.00000000
Si       0.16591365      -2.58616782       2.73297504       0.00000000
Si      -2.56339440       2.78216488      -0.19143594       0.00000000
Si       2.91865065      -2.49349401      -0.04624559       0.00000000
Si       2.75941916       0.50784075      -2.76233358       0.00000000
