10
Lattice="16.28999089631971 0.0 0.0 0.0 16.28999089631971 0.0 0.0 0.0 34.529650657227435" Properties=species:S:1:pos:R:3:initial_magmoms:R:1 pbc="T T T"
Si       1.64687990       1.67044176      -0.41618611       0.00000000
Si      -0.11808621      -0.67543227       2.28420673       0.00000000
Si      -1.83058616       1.24165638      -0.92418662       0.00000000
Si       0.21537986      -2.42567874      -0.44456950       0.00000000
Si       1.69513088      -2.26478241       1.63370227       0.00000000
Si       3.28834175      -0.73011780       0.84169523       0.00000000
Si       2.54959025       0.85380777      -2.48309763       0.00000000
Si      -2.74398275       2.16911124       1.08426617       0.00000000
Si      -2.27139356      -1.65972294       2.40468075       0.00000000
Si      -0.66999003       2.82338280      -2.31224482       0.00000000
