10
Lattice="16.28999089631971 0.0 0.0 0.0 16.28999089631971 0.0 0.0 0.0 34.529650657227435" Properties=species:S:1:pos:R:3:initial_magmoms:R:1 pbc="T T T"
Si      -0.81441855      -1.67045805      -1.45176544       0.00000000
Si       1.76865417       0.87871518      -1.44133748       0.00000000
Si       0.08390979      -1.18662876       2.16000350       0.00000000
Si      -1.69142328       1.83373272      -0.17882916       0.00000000
Si      -2.14130421      -0.34192710      -2.89009885       0.00000000
Si      -2.57256567      -2.66318694      -0.24070633       0.00000000
Si      -1.27930257      -3.08358297       1.63304621       0.00000000
Si       0.57961449       2.38700628      -2.87069317       0.00000000
Si      -3.56785209       0.86447772      -1.46461048       0.00000000
Si       2.46605743       2.00326275       2.36497162       0.00000000
