10
Lattice="16.28999089631971 0.0 0.0 0.0 16.28999089631971 0.0 0.0 0.0 34.529650657227435" Properties=species:S:1:pos:R:3:initial_magmoms:R:1 pbc="T T T"
Si      -1.18903968       1.50829110      -1.42935569       0.00000000
Si       1.49283745      -1.22611572      -1.43860964       0.00000000
Si      -1.76865417      -0.87871518       1.44133748       0.00000000
Si       1.85493320       1.04752845       1.39282330       0.00000000
Si      -2.58307272      -2.54917323      -0.01042796       0.00000000
Si      -2.55834450       0.14300991      -2.80398185       0.00000000
Si      -3.46007745       0.95501754       1.26250832       0.00000000
Si       0.16371986      -2.57166972      -2.80581192       0.00000000
Si      -2.58175323       2.80147275       0.01660877       0.00000000
Si       2.72939669      -2.67887421      -0.05144921       0.00000000
