10
Lattice="16.28999089631971 0.0 0.0 0.0 16.28999089631971 0.0 0.0 0.0 34.529650657227435" Properties=species:S:1:pos:R:3:initial_magmoms:R:1 pbc="T T T"
Si      -0.95213421      -1.38036573       1.67078714       0.00000000
Si      -0.80850528       1.64348181      -1.52496834       0.00000000
Si       1.20997233      -1.42491888      -1.47959636       0.00000000
Si       1.60842573       1.17973809       1.31364676       0.00000000
Si       0.96739794      -2.62575252       2.04249904       0.00000000
Si       3.41354736      -1.13057487      -0.56390404       0.00000000
Si       0.80312958       3.38364477      -1.09231158       0.00000000
Si       3.55080528       1.15720902      -0.03339019       0.00000000
Si      -0.24822702      -3.36772944      -1.70973661       0.00000000
Si       1.18074807      -0.38506302      -3.60772898       0.00000000
