10
Lattice="16.28999089631971 0.0 0.0 0.0 16.28999089631971 0.0 0.0 0.0 34.529650657227435" Properties=species:S:1:pos:R:3:initial_magmoms:R:1 pbc="T T T"
Si      -1.35703030       1.35742277      -1.35770662       0.00000000
Si       1.35752715      -1.35724775      -1.35763756       0.00000000
Si       1.35953082       1.35577422       1.35749944       0.00000000
Si      -1.35926855      -1.35776903       1.35632544       0.00000000
Si       2.71362078       0.00128938       2.71196028       0.00000000
Si      -2.71273202      -0.00138978       2.71413565       0.00000000
Si      -2.71380766      -0.00055248      -2.71455000       0.00000000
Si       2.71494027      -2.71410701       0.00031077       0.00000000
Si      -2.71461241      -2.71495409      -0.00017265       0.00000000
Si      -0.00081450       2.71605764      -2.71368676       0.00000000
