10
Lattice="16.28999089631971 0.0 0.0 0.0 16.28999089631971 0.0 0.0 0.0 34.529650657227435" Properties=species:S:1:pos:R:3:initial_magmoms:R:1 pbc="T T T"
Si      -1.35683098      -1.35583299       1.35608373       0.00000000
Si      -1.35290509       1.35659862      -1.36140130       0.00000000
Si       1.35692893      -1.35418770      -1.36015823       0.00000000
Si       1.35775484       1.35912357       1.35615279       0.00000000
Si       0.00143416      -2.71301805       2.71334146       0.00000000
Si       2.71445445       0.00097740       2.71299617       0.00000000
Si       2.71486170      -2.71321353      -0.00107042       0.00000000
Si      -2.71500973       0.00208512       2.71334146       0.00000000
Si       2.71318383       2.71524978      -0.00124307       0.00000000
Si       0.00049364       2.71635750       2.71354864       0.00000000
