10
Lattice="16.28999089631971 0.0 0.0 0.0 16.28999089631971 0.0 0.0 0.0 34.529650657227435" Properties=species:S:1:pos:R:3:initial_magmoms:R:1 pbc="T T T"
Si       1.32911759       1.34555400       1.36720228       0.00000000
Si      -1.36005746       1.35329175      -1.35635997       0.00000000
Si       1.35487696      -1.36094805      -1.35815551       0.00000000
Si      -1.35389984      -1.36720341       1.39382466       0.00000000
Si       2.56567682      -0.10720449       2.75436271       0.00000000
Si      -0.16371986       2.57166972       2.80581192       0.00000000
Si       2.70410924      -2.71132389      -0.00321126       0.00000000
Si      -0.00167399       2.71275741      -2.71403206       0.00000000
Si       2.71228682      -0.00262269      -2.71458453       0.00000000
Si       2.71533305       2.71423980       0.00528304       0.00000000
