10
Lattice="16.28999089631971 0.0 0.0 0.0 16.28999089631971 0.0 0.0 0.0 34.529650657227435" Properties=species:S:1:pos:R:3:initial_magmoms:R:1 pbc="T T T"
Si      -1.35621580      -1.35863487       1.35598014       0.00000000
Si      -1.35603499       1.35770634      -1.35749944       0.00000000
Si       1.35897696       1.35654975       1.35598014       0.00000000
Si       1.35782037      -1.35783177      -1.36205736       0.00000000
Si      -2.71363882       2.71174743      -0.00113948       0.00000000
Si      -0.00785178       2.68980480      -2.73680783       0.00000000
Si       0.00118917       2.71446786       2.71351411       0.00000000
Si      -2.71410048      -0.00071676       2.71389394       0.00000000
Si      -2.71299316      -2.71661012      -0.00086324       0.00000000
Si       2.71702539      -0.00055386       2.71268540       0.00000000
