10
Lattice="16.28999089631971 0.0 0.0 0.0 16.28999089631971 0.0 0.0 0.0 34.529650657227435" Properties=species:S:1:pos:R:3:initial_magmoms:R:1 pbc="T T T"
Si      -1.35496102       1.35324180       1.35819004       0.00000000
Si       1.35692442      -1.36226754       1.35777568       0.00000000
Si       1.36071999       1.34111947      -1.37605914       0.00000000
Si      -1.35486278      -1.35829278      -1.36633559       0.00000000
Si       0.04357249      -2.62824489      -2.78160317       0.00000000
Si      -2.71094012       2.70967927      -0.00597363       0.00000000
Si       0.00181634       2.71121705       2.71503342       0.00000000
Si       2.71585251       2.71202014      -0.00300408       0.00000000
Si      -2.71317185      -0.00376299       2.71527513       0.00000000
Si      -2.70916451      -2.72091870      -0.00238255       0.00000000
