10
Lattice="16.28999089631971 0.0 0.0 0.0 16.28999089631971 0.0 0.0 0.0 34.529650657227435" Properties=species:S:1:pos:R:3:initial_magmoms:R:1 pbc="T T T"
Si       1.35426915      -1.35946566      -1.36178112       0.00000000
Si      -1.36166318       1.35570267      -1.36281701       0.00000000
Si       1.36203948       1.35755973       1.38474335       0.00000000
Si      -1.38621547      -1.36868580       1.36191924       0.00000000
Si       2.71122615       2.71476108      -0.00718217       0.00000000
Si      -2.71512665       2.71208193      -0.00500680       0.00000000
Si      -2.71533305      -2.71423980      -0.00528304       0.00000000
Si       2.71254564      -0.00063531      -2.71883168       0.00000000
Si      -0.00239463       2.71347170      -2.71914245       0.00000000
Si       2.71696023      -2.71630863      -0.00138119       0.00000000
