10
Lattice="16.28999089631971 0.0 0.0 0.0 16.28999089631971 0.0 0.0 0.0 34.529650657227435" Properties=species:S:1:pos:R:3:initial_magmoms:R:1 pbc="T T T"
Si      -1.32911759      -1.34555400      -1.36720228       0.00000000
Si       1.23655924      -1.45275849       1.38716043       0.00000000
Si       1.38621547       1.36868580      -1.36191924       0.00000000
Si      -1.49283745       1.22611572       1.43860964       0.00000000
Si       2.08096768       0.38309193       2.62843301       0.00000000
Si       0.36209575       2.27364417       2.83143294       0.00000000
Si      -2.68301743      -2.71275741       0.02662238       0.00000000
Si      -2.68917505       0.00773775      -2.72356225       0.00000000
Si      -2.68187713       2.73440682       0.00925395       0.00000000
Si       0.02575938      -2.70650205      -2.72535779       0.00000000
