10
Lattice="16.28999089631971 0.0 0.0 0.0 16.28999089631971 0.0 0.0 0.0 34.529650657227435" Properties=species:S:1:pos:R:3:initial_magmoms:R:1 pbc="T T T"
Si      -0.84440844      -1.83585042      -1.24127258       0.00000000
Si       2.00319759       0.92949111      -1.10860958       0.00000000
Si      -0.06167394      -0.43188048       2.43572292       0.00000000
Si      -1.71887193       1.89055224       0.20299993       0.00000000
Si      -0.45856350       1.97086194       2.48972732       0.00000000
Si      -2.08096768      -0.38309193      -2.62843301       0.00000000
Si       0.66728727       2.34315360      -2.60560889       0.00000000
Si      -3.57380513       0.84302379      -1.18982337       0.00000000
Si      -0.76238829       3.66609708      -1.17445766       0.00000000
Si      -2.07263860      -3.40884540       0.51224765       0.00000000
