10
Lattice="10.86 0.0 0.0 0.0 10.86 0.0 0.0 0.0 10.86" Properties=species:S:1:pos:R:3:initial_magmoms:R:1 pbc="T T T"
Si      -1.05962106       1.51892304      -0.98833602       0.00000000
Si       1.65537894      -1.19607696      -0.98833602       0.00000000
Si      -1.05962106      -1.19607696       1.72666398       0.00000000
Si       0.79688508       2.31314742       0.49748574       0.00000000
Si      -2.41712106       0.16142304      -2.34583602       0.00000000
Si       0.29787894      -2.55357696      -2.34583602       0.00000000
Si      -2.41712106      -2.55357696       0.36916398       0.00000000
Si       2.84779608       0.11666898      -2.23039422       0.00000000
Si      -2.41712106       2.87642304       0.36916398       0.00000000
Si       0.14831502       3.15256026      -2.20767510       0.00000000
