10
Lattice="10.86 0.0 0.0 0.0 10.86 0.0 0.0 0.0 10.86" Properties=species:S:1:pos:R:3:initial_magmoms:R:1 pbc="T T T"
Si      -1.20793608       1.08136278      -1.49566092       0.00000000
Si       1.53177042       1.19768424       1.33387950       0.00000000
Si      -1.20793608      -1.63363722       1.21933908       0.00000000
Si       1.50706392      -1.63363722      -1.49566092       0.00000000
Si       0.64857006      -0.83941284       2.70516084       0.00000000
Si      -2.56543608       2.43886278      -0.13816092       0.00000000
Si      -2.56543608      -0.27613722       2.57683908       0.00000000
Si       0.14956392       2.43886278      -2.85316092       0.00000000
Si       2.96770134       2.32431150      -0.21672216       0.00000000
Si       0.23202390       2.54788632       2.82299184       0.00000000
