10
Lattice="10.86 0.0 0.0 0.0 10.86 0.0 0.0 0.0 10.86" Properties=species:S:1:pos:R:3:initial_magmoms:R:1 pbc="T T T"
Si       1.24472976       1.32193350       1.29332826       0.00000000
Si      -1.47027024      -1.39306650       1.29332826       0.00000000
Si      -1.47027024       1.32193350      -1.42167174       0.00000000
Si       2.52503688      -2.51756520      -0.34409910       0.00000000
Si       2.39208876      -0.00002172      -2.82951870       0.00000000
Si       2.60222976      -0.03556650       2.65082826       0.00000000
Si       2.60222976       2.67943350      -0.06417174       0.00000000
Si      -2.74531026       0.07345704      -2.53301898       0.00000000
Si      -0.11277024       2.67943350       2.65082826       0.00000000
Si      -0.11277024      -2.75056650       2.65082826       0.00000000
