10
Lattice="10.86 0.0 0.0 0.0 10.86 0.0 0.0 0.0 10.86" Properties=species:S:1:pos:R:3:initial_magmoms:R:1 pbc="T T T"
Si       1.23266430      -1.37511492      -1.13495688       0.00000000
Si      -1.48233570       1.33988508      -1.13495688       0.00000000
Si       1.24957332       1.50437064       1.50247014       0.00000000
Si      -1.48233570      -1.37511492       1.58004312       0.00000000
Si       2.31788238      -2.59311822       0.34897524       0.00000000
Si       2.59016430      -0.01761492      -2.49245688       0.00000000
Si      -0.12483570       2.69738508      -2.49245688       0.00000000
Si      -0.12483570      -2.73261492      -2.49245688       0.00000000
Si      -2.83983570      -0.01761492      -2.49245688       0.00000000
Si      -2.83983570       2.69738508       0.22254312       0.00000000
