10
Lattice="10.86 0.0 0.0 0.0 10.86 0.0 0.0 0.0 10.86" Properties=species:S:1:pos:R:3:initial_magmoms:R:1 pbc="T T T"
Si       1.38482376       1.33328220       0.90330222       0.00000000
Si      -1.08521808       1.21800330      -1.48393212       0.00000000
Si      -1.08521808      -1.49699670       1.23106788       0.00000000
Si       1.62978192      -1.49699670      -1.48393212       0.00000000
Si      -2.31788238       2.59311822      -0.34897524       0.00000000
Si      -1.60490166      -0.61095102       3.24298062       0.00000000
Si      -2.44271808      -0.13949670      -2.84143212       0.00000000
Si      -2.44271808      -2.85449670      -0.12643212       0.00000000
Si       2.94408084       0.03700002       2.45560890       0.00000000
Si       0.27228192       2.57550330      -2.84143212       0.00000000
