10
Lattice="16.28999089631971 0.0 0.0 0.0 16.28999089631971 0.0 0.0 0.0 34.450931932916035" Properties=species:S:1:pos:R:3:initial_magmoms:R:1 pbc="T T T"
Si      -1.40143263      -1.81198557       0.27681339       0.00000000
Si       2.08344539      -0.78649749      -0.81197447       0.00000000
Si       1.06769058       1.35158130       1.69825964       0.00000000
Si      -1.53152457       0.83165337      -1.68547834       0.00000000
Si       2.88880670       1.20559032      -1.70411630       0.00000000
Si       2.67078134       2.40184647       0.31718991       0.00000000
Si      -1.74414165      -2.66036877      -1.84250577       0.00000000
Si      -3.35712858      -1.18573281       1.35757418       0.00000000
Si       2.48121461      -0.09769113       2.96509002       0.00000000
Si       3.67629788      -1.03966038       0.88532054       0.00000000
