10
Lattice="16.28999089631971 0.0 0.0 0.0 16.28999089631971 0.0 0.0 0.0 34.450931932916035" Properties=species:S:1:pos:R:3:initial_magmoms:R:1 pbc="T T T"
Si       1.39219227      -1.30849946       1.34539233       0.00000000
Si      -1.30637655       1.44542799       1.33289352       0.00000000
Si       1.73439630       0.95765652      -1.31809718       0.00000000
Si      -1.70153937      -0.52803872      -1.58778375       0.00000000
Si      -0.01205460       0.67303764      -3.15922943       0.00000000
Si      -2.68508070      -2.51816426      -0.19200549       0.00000000
Si       2.70334179      -2.63576177      -0.11276141       0.00000000
Si       0.04419477      -2.64296195       2.70464771       0.00000000
Si      -2.67278175       0.07078168       2.69944562       0.00000000
Si       3.62230956      -0.67174584      -1.13234489       0.00000000
