10
Lattice="16.28999089631971 0.0 0.0 0.0 16.28999089631971 0.0 0.0 0.0 34.450931932916035" Properties=species:S:1:pos:R:3:initial_magmoms:R:1 pbc="T T T"
Si      -1.52378289       0.07357379      -1.79661710       0.00000000
Si       2.19142854       0.93936285      -0.22372448       0.00000000
Si       0.02342502      -2.30435964       0.90612892       0.00000000
Si      -1.06903125       1.50462422       1.70997296       0.00000000
Si       3.24074889      -0.10245433       1.57513194       0.00000000
Si      -0.20305485       0.23458089      -3.69396879       0.00000000
Si       1.70663814       3.23113616      -0.67286153       0.00000000
Si      -2.23223499      -2.11860477      -2.19580028       0.00000000
Si       2.02940820      -3.22766055      -0.09229410       0.00000000
Si      -1.62184869      -3.48748605      -0.37234588       0.00000000
