10
Lattice="16.28999089631971 0.0 0.0 0.0 16.28999089631971 0.0 0.0 0.0 34.450931932916035" Properties=species:S:1:pos:R:3:initial_magmoms:R:1 pbc="T T T"
Si       1.35609363       1.35695700      -1.35757418       0.00000000
Si       1.35324288      -1.35830907       1.35957234       0.00000000
Si      -1.35917244      -1.35780408      -1.35698852       0.00000000
Si      -1.36278882       1.35492075       1.35791869       0.00000000
Si       2.71239903       2.71407690      -0.00082682       0.00000000
Si       2.71407690      -0.00057015      -2.71439044       0.00000000
Si       2.71373481      -2.71499728       0.00199816       0.00000000
Si      -0.00127062       2.71438641      -2.71463160       0.00000000
Si      -2.71640637      -2.71331127       0.00020671       0.00000000
Si      -2.71498914       2.71487511       0.00020671       0.00000000
