10
Lattice="16.28999089631971 0.0 0.0 0.0 16.28999089631971 0.0 0.0 0.0 34.450931932916035" Properties=species:S:1:pos:R:3:initial_magmoms:R:1 pbc="T T T"
Si      -0.79477281       1.81333764       1.23313735       0.00000000
Si       0.52046550      -1.29942072       1.93717699       0.00000000
Si       1.76332734       0.95891085      -1.30372735       0.00000000
Si      -1.78291118      -0.66642390      -1.48669635       0.00000000
Si       1.08468594       0.03192840      -3.35162969       0.00000000
Si      -2.02305999       0.75733839       2.92884762       0.00000000
Si      -1.06973172      -2.88235749      -1.99729390       0.00000000
Si       1.01309139      -2.27849696      -2.93236161       0.00000000
Si      -3.86096525      -0.34477785      -0.35463809       0.00000000
Si       2.83224456      -1.40173821       2.28930016       0.00000000
