10
Lattice="16.28999089631971 0.0 0.0 0.0 16.28999089631971 0.0 0.0 0.0 34.450931932916035" Properties=species:S:1:pos:R:3:initial_magmoms:R:1 pbc="T T T"
Si       1.62473202      -1.83889665       0.04196126       0.00000000
Si       0.72353664       1.88750601      -1.39343762       0.00000000
Si       0.89270829       0.90725526       2.14670767       0.00000000
Si      -2.02152384      -0.92113434      -1.23572117       0.00000000
Si       1.98956286       0.41666562      -2.80513425       0.00000000
Si      -0.74091807      -2.32893243      -2.77722898       0.00000000
Si       3.28054536      -0.97867062      -1.40239487       0.00000000
Si       0.68302341      -3.65697468      -1.34744560       0.00000000
Si       1.76808402       3.56990463      -0.01491726       0.00000000
Si      -0.06302601      -2.33463393       3.31883238       0.00000000
