10
Lattice="16.28999089631971 0.0 0.0 0.0 16.28999089631971 0.0 0.0 0.0 34.450931932916035" Properties=species:S:1:pos:R:3:initial_magmoms:R:1 pbc="T T T"
Si      -1.07797446       0.81290358       1.90189921       0.00000000
Si      -0.99352710       0.88692534      -1.97424621       0.00000000
Si       2.35432854       0.44255043      -0.06249403       0.00000000
Si      -0.58150413      -2.35975311       0.05849772       0.00000000
Si      -3.23848458      -0.04298931       1.17191801       0.00000000
Si      -2.23432011      -0.95151519      -2.68200655       0.00000000
Si      -0.34697700      -0.90354114       3.54148888       0.00000000
Si       1.43246115      -3.30999768      -0.69935431       0.00000000
Si       3.20781051      -1.73077992      -0.58449484       0.00000000
Si       2.53387692       2.06449686      -1.74115107       0.00000000
