10
Lattice="16.28999089631971 0.0 0.0 0.0 16.28999089631971 0.0 0.0 0.0 34.450931932916035" Properties=species:S:1:pos:R:3:initial_magmoms:R:1 pbc="T T T"
Si       0.25557381      -0.82788356      -2.18625736       0.00000000
Si      -2.19615753       0.47880480       0.75216762       0.00000000
Si       0.41449905      -1.65491057       1.69012921       0.00000000
Si       1.29860622       2.00861988      -0.22158852       0.00000000
Si      -0.01679499      -0.23422709       3.58872113       0.00000000
Si       2.75173938      -1.88217236       1.40487534       0.00000000
Si       0.68173650       3.15766761       1.74724889       0.00000000
Si       1.60537950       1.38171878       3.01838564       0.00000000
Si      -2.76145541       2.52612060      -0.20436304       0.00000000
Si      -1.00184152      -2.73312938      -2.41769885       0.00000000
