10
Lattice="16.28999089631971 0.0 0.0 0.0 16.28999089631971 0.0 0.0 0.0 34.450931932916035" Properties=species:S:1:pos:R:3:initial_magmoms:R:1 pbc="T T T"
Si      -1.35524655      -1.35643572      -1.35757418       0.00000000
Si       1.35687555      -1.35672894       1.35671291       0.00000000
Si      -1.35790182       1.35765747       1.35691961       0.00000000
Si       1.35628911       1.35824391      -1.35850436       0.00000000
Si      -0.00141723      -2.71440270      -2.71215113       0.00000000
Si       0.00097740       2.71386513       2.71383923       0.00000000
Si       0.00259011      -2.71366965       2.71470050       0.00000000
Si       2.71565703       0.00278559       2.71321911       0.00000000
Si      -2.71490769      -2.71409319      -0.00013780       0.00000000
Si      -2.71533123       0.00140094       2.71377033       0.00000000
