10
Lattice="16.28999089631971 0.0 0.0 0.0 16.28999089631971 0.0 0.0 0.0 34.450931932916035" Properties=species:S:1:pos:R:3:initial_magmoms:R:1 pbc="T T T"
Si      -1.24765110       0.48747825       1.92542921       0.00000000
Si       0.28505871      -1.40344866       1.87988505       0.00000000
Si       1.76552649       1.55222523      -0.27137014       0.00000000
Si      -0.89270829      -0.90725526      -2.14670767       0.00000000
Si       0.73202373      -2.74615191      -2.10474641       0.00000000
Si       0.87537573       2.66264937      -2.16162493       0.00000000
Si      -0.95573430      -3.24188919       1.17212471       0.00000000
Si       3.65980914       0.27679968      -0.21745440       0.00000000
Si      -0.16917165       0.98025075      -3.54014529       0.00000000
Si       2.04789735       2.96567595       1.53348074       0.00000000
