10
Lattice="16.28999089631971 0.0 0.0 0.0 16.28999089631971 0.0 0.0 0.0 34.450931932916035" Properties=species:S:1:pos:R:3:initial_magmoms:R:1 pbc="T T T"
Si      -0.84240477       0.72956394       2.12727733       0.00000000
Si      -1.19586519       0.90153747      -1.91884908       0.00000000
Si       2.27036988       0.94038912      -0.25600502       0.00000000
Si      -0.21071115      -2.47927284       0.02883545       0.00000000
Si       3.49787025      -0.19864026       1.42706175       0.00000000
Si       0.86726331      -3.29217642      -1.87306377       0.00000000
Si      -0.10958283       2.94435301       2.62881428       0.00000000
Si       2.91288006       0.82438803      -2.58575059       0.00000000
Si       0.08169435      -0.42715638       3.96781940       0.00000000
Si      -0.14680548       2.76781828      -2.91613521       0.00000000
