10
Lattice="16.28999089631971 0.0 0.0 0.0 16.28999089631971 0.0 0.0 0.0 34.450931932916035" Properties=species:S:1:pos:R:3:initial_magmoms:R:1 pbc="T T T"
Si       0.01169622      -2.14229790       0.79281974       0.00000000
Si      -1.59285249       0.25316289      -1.69729501       0.00000000
Si       2.07738225       0.42197616      -1.25787313       0.00000000
Si      -1.19508327       0.94196925       2.07976947       0.00000000
Si      -0.78749118       2.24525070      -2.58943684       0.00000000
Si       1.90974186      -3.03358896      -0.30902503       0.00000000
Si      -1.00551654       3.44150685      -0.56813064       0.00000000
Si      -2.60860729       2.39124168       0.81293910       0.00000000
Si      -1.08339903      -1.52264259      -3.20728020       0.00000000
Si       1.41446070      -2.12426487       2.69933473       0.00000000
