10
Lattice="16.28999089631971 0.0 0.0 0.0 16.28999089631971 0.0 0.0 0.0 34.450931932916035" Properties=species:S:1:pos:R:3:initial_magmoms:R:1 pbc="T T T"
Si       0.16400772       1.96489165       1.36580796       0.00000000
Si      -0.84155769      -2.00055765       1.26324748       0.00000000
Si      -2.13816024       1.22890945      -0.73036017       0.00000000
Si       1.42131879      -0.49249883      -2.14429610       0.00000000
Si      -0.28375551       3.49180222      -0.43959414       0.00000000
Si      -1.12392855      -3.41400837      -0.54160340       0.00000000
Si       3.67968294       0.37498765      -0.55782980       0.00000000
Si       2.00415870      -1.21079660       2.91785776       0.00000000
Si      -3.53071089      -0.79040546      -1.15524375       0.00000000
Si      -2.62493802      -1.19661290       2.54082655       0.00000000
