10
Lattice="16.28999089631971 0.0 0.0 0.0 16.28999089631971 0.0 0.0 0.0 34.450931932916035" Properties=species:S:1:pos:R:3:initial_magmoms:R:1 pbc="T T T"
Si      -2.06902548       0.88927599      -0.62066834       0.00000000
Si       1.33908687       1.59253158       1.12995675       0.00000000
Si       1.42405551      -0.46271419      -1.88946242       0.00000000
Si      -0.78786585      -2.27595965       0.39363657       0.00000000
Si      -0.14535567      -2.39196074      -1.93610901       0.00000000
Si       3.49705575       0.67706127       0.67296488       0.00000000
Si      -3.04199460       1.30168992       1.50257824       0.00000000
Si       1.37756385       3.58297410      -0.20336396       0.00000000
Si      -1.91366775       2.99412318      -1.60296831       0.00000000
Si      -3.20504121      -0.44853049      -2.26649363       0.00000000
