10
Lattice="16.28999089631971 0.0 0.0 0.0 16.28999089631971 0.0 0.0 0.0 34.450931932916035" Properties=species:S:1:pos:R:3:initial_magmoms:R:1 pbc="T T T"
Si      -2.17460097       0.41985846       0.92149404       0.00000000
Si       1.35053874       1.71129708       1.00448638       0.00000000
Si       0.21229128      -0.27595260      -2.38900121       0.00000000
Si       0.77377500      -2.19980160       0.65074402       0.00000000
Si       3.39550389       0.60548301       0.62180522       0.00000000
Si       2.75661009      -1.39341402       1.74607756       0.00000000
Si      -2.69149896      -1.83882497       1.48724756       0.00000000
Si       0.90632673       3.67031619      -0.27650333       0.00000000
Si       2.37026016      -1.19142291      -2.84599308       0.00000000
Si      -3.62555127       1.43928666      -0.72767299       0.00000000
