10
Lattice="16.28999089631971 0.0 0.0 0.0 16.28999089631971 0.0 0.0 0.0 34.450931932916035" Properties=species:S:1:pos:R:3:initial_magmoms:R:1 pbc="T T T"
Si       1.04932035      -1.04181718       1.79885642       0.00000000
Si      -0.48479040       2.29177331      -0.44913705       0.00000000
Si      -2.19142854      -0.93936285       0.22372448       0.00000000
Si       2.19177063      -0.15664953      -1.00445193       0.00000000
Si       3.10032909       1.94194556      -0.48927241       0.00000000
Si       1.39396788       3.19293611      -1.58023068       0.00000000
Si      -3.26045979       0.56526137       1.93369744       0.00000000
Si       2.99281509      -2.32126866      -0.63996087       0.00000000
Si       1.08725976      -3.33496278      -1.66411875       0.00000000
Si       1.79129727      -3.23166789       1.25353231       0.00000000
