10
Lattice="16.28999089631971 0.0 0.0 0.0 16.28999089631971 0.0 0.0 0.0 34.450931932916035" Properties=species:S:1:pos:R:3:initial_magmoms:R:1 pbc="T T T"
Si      -1.16875863       1.44774117       1.44501070       0.00000000
Si      -1.36586763      -1.34213310      -1.37793469       0.00000000
Si       1.35094599       1.37036367      -1.37769354       0.00000000
Si       1.31307174      -1.45552779       1.56438324       0.00000000
Si      -2.39630787      -0.01200573       2.84168671       0.00000000
Si       0.65384802       2.22283566       2.92653940       0.00000000
Si       2.29376232       0.37911717       2.92164737       0.00000000
Si       2.70930393      -2.70182682       0.01822455       0.00000000
Si      -2.71982727      -2.70891297       0.00196370       0.00000000
Si       2.70495450       2.72800485      -0.00644233       0.00000000
