10
Lattice="16.28999089631971 0.0 0.0 0.0 16.28999089631971 0.0 0.0 0.0 34.450931932916035" Properties=species:S:1:pos:R:3:initial_magmoms:R:1 pbc="T T T"
Si      -0.48752712       2.12762061       0.94571306       0.00000000
Si       0.44776323      -1.52691057       1.80540210       0.00000000
Si      -1.68790464      -0.34015149      -1.92804748       0.00000000
Si       2.57202810       0.22395492      -0.48506939       0.00000000
Si      -1.85440473      -2.26289277      -0.29076603       0.00000000
Si       1.53290529       1.86202845      -1.92322435       0.00000000
Si      -0.02495628       0.68494563      -3.38594284       0.00000000
Si       0.28375551      -3.49180222       0.43959414       0.00000000
Si       1.03009815       3.42886581      -0.24901148       0.00000000
Si      -2.81217528       2.41349382       0.66762498       0.00000000
