10
Lattice="16.28999089631971 0.0 0.0 0.0 16.28999089631971 0.0 0.0 0.0 34.450931932916035" Properties=species:S:1:pos:R:3:initial_magmoms:R:1 pbc="T T T"
Si       2.25336312      -0.61256916       0.10607448       0.00000000
Si      -1.12925538      -1.73245779      -1.11462607       0.00000000
Si      -0.09286929       2.20680630      -0.88532054       0.00000000
Si      -0.47369691       0.22336848       2.33119251       0.00000000
Si       2.25795690       2.52289746      -0.93148482       0.00000000
Si      -3.18531402      -0.70868016      -1.31757663       0.00000000
Si       1.25115345       1.66288320       3.03185596       0.00000000
Si       3.08006433       0.63192168       1.95481587       0.00000000
Si       2.19294351      -2.91369456       0.90016890       0.00000000
Si      -2.66541867       1.05467976       2.54189453       0.00000000
