10
Lattice="16.28999089631971 0.0 0.0 0.0 16.28999089631971 0.0 0.0 0.0 34.450931932916035" Properties=species:S:1:pos:R:3:initial_magmoms:R:1 pbc="T T T"
Si       1.72485036       1.43951472       0.70066345       0.00000000
Si      -2.19172176       0.83131128       0.21070202       0.00000000
Si       0.44421201      -1.95901911       1.28098972       0.00000000
Si       0.47369691      -0.22336848      -2.33119251       0.00000000
Si       3.55376124       0.40855320      -0.37637664       0.00000000
Si       2.72706003      -0.83593764      -2.22511804       0.00000000
Si      -3.44971701      -0.34451721      -1.47381169       0.00000000
Si      -0.90632673      -3.67031619       0.27650333       0.00000000
Si       0.38082762       1.98343782      -3.21651306       0.00000000
Si      -3.03200883       0.35859177       2.38366131       0.00000000
