10
Lattice="16.28999089631971 0.0 0.0 0.0 16.28999089631971 0.0 0.0 0.0 34.450931932916035" Properties=species:S:1:pos:R:3:initial_magmoms:R:1 pbc="T T T"
Si       2.07664920      -1.03808025       0.30161808       0.00000000
Si      -1.14201045      -1.37476197      -1.52321436       0.00000000
Si      -0.88177770      -0.56452995       2.13595897       0.00000000
Si      -0.42168294       2.37412089      -0.15520154       0.00000000
Si      -3.18441807      -0.35474733      -1.03931630       0.00000000
Si      -3.07747422      -0.29530512       1.45055730       0.00000000
Si       0.76804092       3.29989788       1.70918059       0.00000000
Si      -0.05437602      -2.68938126       2.68672633       0.00000000
Si      -0.30172338      -0.90204246      -3.69617365       0.00000000
Si       3.73246254       0.04973337      -0.88645742       0.00000000
