10
Lattice="16.28999089631971 0.0 0.0 0.0 16.28999089631971 0.0 0.0 0.0 34.450931932916035" Properties=species:S:1:pos:R:3:initial_magmoms:R:1 pbc="T T T"
Si      -1.51762527      -1.30124520       1.19472454       0.00000000
Si       0.50280714      -1.56683736      -1.67421287       0.00000000
Si       1.86830010      -0.10862172       1.60534542       0.00000000
Si       1.73035638      -0.10709046      -3.07088889       0.00000000
Si       1.54192995      -3.20491089      -0.23605792       0.00000000
Si      -1.03009815      -3.42886581       0.24901148       0.00000000
Si      -2.90377395       1.65693735      -1.68637406       0.00000000
Si       0.85059864       0.38193534       3.68800878       0.00000000
Si      -0.92475072      -1.19728242       3.57314930       0.00000000
Si       3.55296303       0.66800403      -1.58936018       0.00000000
