10
Lattice="16.28999089631971 0.0 0.0 0.0 16.28999089631971 0.0 0.0 0.0 34.450931932916035" Properties=species:S:1:pos:R:3:initial_magmoms:R:1 pbc="T T T"
Si       1.39711185      -0.52844760       1.83385858       0.00000000
Si       1.01770146      -0.49055706      -2.08266335       0.00000000
Si      -1.77534936      -1.57921776      -0.11485947       0.00000000
Si      -0.85348197       2.17333035       0.52200081       0.00000000
Si       0.70203384       1.08093924       3.43196931       0.00000000
Si      -3.20781051       1.73077992       0.58449484       0.00000000
Si       1.73635110      -2.79681381      -1.82204191       0.00000000
Si      -0.85059864      -0.38193534      -3.68800878       0.00000000
Si      -2.36822391      -1.68318054      -2.49328424       0.00000000
Si      -3.78931464      -0.62897319       0.64299255       0.00000000
