10
Lattice="16.28999089631971 0.0 0.0 0.0 16.28999089631971 0.0 0.0 0.0 34.450931932916035" Properties=species:S:1:pos:R:3:initial_magmoms:R:1 pbc="T T T"
Si       0.93797820      -1.28285379      -1.67972503       0.00000000
Si       0.64275453       2.22718509       0.07410400       0.00000000
Si      -2.32637490      -0.13460427      -0.07076225       0.00000000
Si       1.13968098      -0.88508457       1.83627015       0.00000000
Si       3.02047551       1.90223217       0.54081103       0.00000000
Si      -0.79757469      -1.38639303      -3.23980190       0.00000000
Si      -2.79500562      -0.87174306       2.13027457       0.00000000
Si       1.35913986      -3.19613058       1.39901868       0.00000000
Si      -2.74984974      -1.75285287      -1.86748271       0.00000000
Si      -0.59940684       3.17145123       1.94847690       0.00000000
