10
Lattice="16.28999089631971 0.0 0.0 0.0 16.28999089631971 0.0 0.0 0.0 34.450931932916035" Properties=species:S:1:pos:R:3:initial_magmoms:R:1 pbc="T T T"
Si       0.48826017      -2.05206759      -1.02846425       0.00000000
Si      -1.27630521       1.13948550      -1.60796370       0.00000000
Si      -0.64251018       0.11600109       2.32974557       0.00000000
Si       1.56941118       1.92924655       0.04664659       0.00000000
Si       0.14535567       2.39196074       1.93610901       0.00000000
Si       3.15292950       0.24166215      -0.16026582       0.00000000
Si       2.42256735      -1.22609943      -2.00897277       0.00000000
Si      -3.05968554       1.94343025      -0.33038462       0.00000000
Si       0.33560658      -1.54939077      -3.35889884       0.00000000
Si       0.30871179      -3.67401402       0.65019280       0.00000000
