10
Lattice="16.28999089631971 0.0 0.0 0.0 16.28999089631971 0.0 0.0 0.0 34.450931932916035" Properties=species:S:1:pos:R:3:initial_magmoms:R:1 pbc="T T T"
Si      -2.39125797       0.02047653       0.35484480       0.00000000
Si       1.02491793       0.24899265      -2.18591285       0.00000000
Si       0.77535513      -2.24259543       0.53047575       0.00000000
Si       0.84540213       2.08207377       1.08944243       0.00000000
Si       2.95741692       1.36231641      -1.27434068       0.00000000
Si       2.50232319       1.06346007       2.54971490       0.00000000
Si       3.10173003      -2.10799116       0.60123800       0.00000000
Si       3.74448456       0.11919393       0.67534200       0.00000000
Si      -3.31535709       1.17719685      -1.48569727       0.00000000
Si      -0.97941996       3.69364088       0.74358933       0.00000000
