10
Lattice="16.28999089631971 0.0 0.0 0.0 16.28999089631971 0.0 0.0 0.0 34.450931932916035" Properties=species:S:1:pos:R:3:initial_magmoms:R:1 pbc="T T T"
Si      -1.91459628      -0.82749779      -1.07978307       0.00000000
Si      -1.41757209       1.29645268       1.38177942       0.00000000
Si       1.29950217      -1.44926658       1.37497191       0.00000000
Si       1.49732793       1.22116030      -1.59458092       0.00000000
Si       2.61017928       2.49257851       0.02558328       0.00000000
Si      -1.23918030      -1.08979286      -3.24150864       0.00000000
Si      -0.06599079       2.63303089       2.75658941       0.00000000
Si       2.65346181      -0.08557952       2.75328212       0.00000000
Si      -2.80365561       2.64085009      -0.12958036       0.00000000
Si      -2.77788483      -0.08322561       2.74756326       0.00000000
