10
Lattice="16.28999089631971 0.0 0.0 0.0 16.28999089631971 0.0 0.0 0.0 34.450931932916035" Properties=species:S:1:pos:R:3:initial_magmoms:R:1 pbc="T T T"
Si       1.35665944      -1.35212931       1.35926228       0.00000000
Si      -1.35744570      -1.35616532      -1.35647175       0.00000000
Si       1.35748678       1.35843613      -1.35598944       0.00000000
Si      -1.35637056       1.35737728       1.36067477       0.00000000
Si       0.00076563      -2.71353348      -2.71335692       0.00000000
Si       2.71490673       0.00111912      -2.71339137       0.00000000
Si      -2.71445157      -2.71387557       0.00117133       0.00000000
Si       2.71544593      -2.71327284       0.00082682       0.00000000
Si      -2.71505430       0.00161271      -2.71366697       0.00000000
Si      -0.00003258       2.71619134      -2.71387368       0.00000000
