10
Lattice="16.28999089631971 0.0 0.0 0.0 16.28999089631971 0.0 0.0 0.0 34.450931932916035" Properties=species:S:1:pos:R:3:initial_magmoms:R:1 pbc="T T T"
Si      -0.87040728      -2.00574697       0.98874230       0.00000000
Si       1.33776805      -1.31720125      -1.55835433       0.00000000
Si      -1.36308204       1.39077504      -1.52686616       0.00000000
Si       1.83028643       0.92703132       1.46888521       0.00000000
Si       2.65332239      -2.68033121      -0.17211695       0.00000000
Si      -2.75931423       2.63707407       0.01929253       0.00000000
Si       3.61379708      -0.85331907       1.04369157       0.00000000
Si       2.81974103       2.72992707       0.08702310       0.00000000
Si      -2.83230972      -2.71383974      -0.22913328       0.00000000
Si       0.94190150      -3.61389482       1.31065199       0.00000000
