10
Lattice="16.28999089631971 0.0 0.0 0.0 16.28999089631971 0.0 0.0 0.0 34.450931932916035" Properties=species:S:1:pos:R:3:initial_magmoms:R:1 pbc="T T T"
Si       1.11285135       1.27141821       1.62016420       0.00000000
Si      -0.70934805       1.58788404      -1.73560447       0.00000000
Si      -1.49732793      -1.22116030       1.59458092       0.00000000
Si       2.02070934      -0.83626344      -1.59638818       0.00000000
Si       1.10869740       3.10819716      -1.29607923       0.00000000
Si       2.62164876       2.42419635       0.30641579       0.00000000
Si       2.67749838      -2.59857819       0.07813476       0.00000000
Si       2.51594163       0.04176756       2.99689655       0.00000000
Si      -2.73650823      -2.31095316      -1.64692772       0.00000000
Si       3.76576812       0.71395812      -0.93472321       0.00000000
