10
Lattice="16.28999089631971 0.0 0.0 0.0 16.28999089631971 0.0 0.0 0.0 34.450931932916035" Properties=species:S:1:pos:R:3:initial_magmoms:R:1 pbc="T T T"
Si      -1.35620766      -1.34716671       1.38211704       0.00000000
Si       1.36041048       1.36619343       1.37750061       0.00000000
Si       1.31996241      -1.48761909      -1.34888910       0.00000000
Si      -1.31926194       1.41203349      -1.47103839       0.00000000
Si      -2.70778896      -2.68374492       0.00730705       0.00000000
Si      -2.69519679       2.72596860       0.01716691       0.00000000
Si       2.72305269      -2.71726974       0.02784326       0.00000000
Si       2.73331287       2.70803331       0.03165009       0.00000000
Si       0.00506619      -2.70606222       2.73721075       0.00000000
Si      -2.70909216       0.00754227       2.73807203       0.00000000
