10
Lattice="16.28999089631971 0.0 0.0 0.0 16.28999089631971 0.0 0.0 0.0 34.450931932916035" Properties=species:S:1:pos:R:3:initial_magmoms:R:1 pbc="T T T"
Si      -0.24917184       1.87647768      -1.25780423       0.00000000
Si       0.14595840       0.19122831       2.28540720       0.00000000
Si       2.26227279      -0.30185370      -0.33348521       0.00000000
Si      -0.48593070      -2.25355860      -0.08033962       0.00000000
Si       0.18769338      -2.13881184      -2.34245797       0.00000000
Si       1.14129369      -2.00881764       2.28998918       0.00000000
Si      -2.20503069       2.70158247      -0.25752086       0.00000000
Si       2.39455085      -0.94900653      -2.56280626       0.00000000
Si       2.77523349      -2.33419410       0.67789137       0.00000000
Si      -1.79628201      -0.85672368       3.12401225       0.00000000
