10
Lattice="16.28999089631971 0.0 0.0 0.0 16.28999089631971 0.0 0.0 0.0 34.450931932916035" Properties=species:S:1:pos:R:3:initial_magmoms:R:1 pbc="T T T"
Si      -0.93797820       1.28285379       1.67972503       0.00000000
Si      -1.73555289      -0.10353924      -1.56007687       0.00000000
Si       1.94224041       1.04795199      -0.83860505       0.00000000
Si       0.30354786      -2.25684918       0.75898891       0.00000000
Si       2.93757570      -1.15209396      -0.83402308       0.00000000
Si       0.20170278       0.39776922       3.51599518       0.00000000
Si       0.42116166      -1.91327679       3.07874370       0.00000000
Si       1.79628201       0.85672368      -3.12401225       0.00000000
Si      -3.68782794      -0.46999908      -0.18775768       0.00000000
Si       1.31035131      -1.39683492      -3.20435187       0.00000000
