10
Lattice="16.28999089631971 0.0 0.0 0.0 16.28999089631971 0.0 0.0 0.0 34.450931932916035" Properties=species:S:1:pos:R:3:initial_magmoms:R:1 pbc="T T T"
Si       1.35677984      -1.35307998       1.36263847       0.00000000
Si      -1.35694071       1.36265850       1.36298298       0.00000000
Si      -1.35495333      -1.37626065      -1.36409575       0.00000000
Si       1.37441762       1.37492487      -1.35515573       0.00000000
Si       2.71479596      -2.71052568       0.00337619       0.00000000
Si      -2.71516833      -2.71176372       0.00864719       0.00000000
Si      -0.00052128      -2.71081890       2.72045381       0.00000000
Si       2.71469170       2.71893132       0.00912950       0.00000000
Si      -2.71513575       2.71933857       0.00334174       0.00000000
Si      -2.71489140       0.00394218       2.72055716       0.00000000
