10
Lattice="16.28999089631971 0.0 0.0 0.0 16.28999089631971 0.0 0.0 0.0 34.450931932916035" Properties=species:S:1:pos:R:3:initial_magmoms:R:1 pbc="T T T"
Si      -1.61008731      -0.79894305      -1.45517373       0.00000000
Si       1.90837580      -1.25133264      -0.49185623       0.00000000
Si       0.44838225       2.32153677      -0.40107797       0.00000000
Si      -0.62996688      -0.16193889       2.32385446       0.00000000
Si      -0.39022695       2.94780582       1.68592620       0.00000000
Si      -3.35429019       0.54162621      -0.42353999       0.00000000
Si       0.83453670       1.47851298       3.09724386       0.00000000
Si       3.56684930       0.28655739       0.22448240       0.00000000
Si      -2.62392804       2.00938779       1.42516695       0.00000000
Si       2.74494875       2.28965724      -0.97540978       0.00000000
