10
Lattice="16.28999089631971 0.0 0.0 0.0 16.28999089631971 0.0 0.0 0.0 34.450931932916035" Properties=species:S:1:pos:R:3:initial_magmoms:R:1 pbc="T T T"
Si      -1.43283582      -0.60121503       1.72692283       0.00000000
Si       2.26431000      -0.38802780       0.54883810       0.00000000
Si      -0.75929319      -1.79607024      -1.45875663       0.00000000
Si      -0.30791358       2.37751151      -0.58838780       0.00000000
Si       2.66106924      -0.98072316      -1.68565059       0.00000000
Si       1.43630559       0.48856968      -3.09696826       0.00000000
Si      -0.79739550      -0.44984835      -3.35772751       0.00000000
Si      -1.90439874       1.36913282       2.90834930       0.00000000
Si       1.19656566      -2.62117503      -2.45903999       0.00000000
Si      -3.36533481      -1.71453879       0.81535066       0.00000000
