10
Lattice="16.28999089631971 0.0 0.0 0.0 16.28999089631971 0.0 0.0 0.0 34.450931932916035" Properties=species:S:1:pos:R:3:initial_magmoms:R:1 pbc="T T T"
Si       1.35530674      -1.35796343      -1.35536932       0.00000000
Si       1.35547290       1.35742222       1.35643730       0.00000000
Si      -1.35866820      -1.35723038       1.35647175       0.00000000
Si      -1.35801660       1.35644157      -1.36053696       0.00000000
Si       0.00179115       2.70494894      -2.71150345       0.00000000
Si       0.01503266      -2.70196988      -2.71965455       0.00000000
Si       2.71100452       2.71428311      -0.00151584       0.00000000
Si       2.71206337      -2.71368239      -0.00120578       0.00000000
Si       2.71338286       0.00033050       2.71346027       0.00000000
Si       2.70623155      -0.00274148      -2.72062951       0.00000000
