10
Lattice="16.28999089631971 0.0 0.0 0.0 16.28999089631971 0.0 0.0 0.0 34.450931932916035" Properties=species:S:1:pos:R:3:initial_magmoms:R:1 pbc="T T T"
Si      -1.34335967      -1.37231847      -1.34657399       0.00000000
Si      -1.35801612       1.35744570       1.35926228       0.00000000
Si       1.35924249      -1.35650088       1.35922783       0.00000000
Si       1.35477903       1.36611198      -1.37369723       0.00000000
Si       2.68669830      -0.07630236      -2.70610844       0.00000000
Si      -2.61778901      -0.09164754      -2.79766184       0.00000000
Si      -2.71479596       2.71052568      -0.00337619       0.00000000
Si      -2.71626206      -2.71415835      -0.00072347       0.00000000
Si       2.71735608       2.71397916       0.00024116       0.00000000
Si       0.00052128       2.71508688       2.71704317       0.00000000
