10
Lattice="16.28999089631971 0.0 0.0 0.0 16.28999089631971 0.0 0.0 0.0 34.450931932916035" Properties=species:S:1:pos:R:3:initial_magmoms:R:1 pbc="T T T"
Si       1.35738380       1.35772263      -1.35647175       0.00000000
Si      -1.35761349      -1.35744570      -1.35667846       0.00000000
Si       1.35766073      -1.35646830       1.36260402       0.00000000
Si      -1.35951702       1.35457866       1.36356865       0.00000000
Si      -2.71543290      -2.71324611      -0.00017225       0.00000000
Si       2.71536707       0.00066789      -2.71370142       0.00000000
Si       0.00027530       2.71513575      -2.71418374       0.00000000
Si      -0.00004398      -2.71518462      -2.71418374       0.00000000
Si      -2.71556322      -0.00024435      -2.71414929       0.00000000
Si       2.71626302      -2.71427238       0.00062012       0.00000000
