10
Lattice="16.28999089631971 0.0 0.0 0.0 16.28999089631971 0.0 0.0 0.0 34.450931932916035" Properties=species:S:1:pos:R:3:initial_magmoms:R:1 pbc="T T T"
Si       1.35876062       1.35671265       1.35636840       0.00000000
Si      -1.35748678      -1.35843613       1.35598944       0.00000000
Si       1.35741995      -1.35731701      -1.35740193       0.00000000
Si      -1.35751936       1.35775521      -1.35788424       0.00000000
Si      -0.00082734      -2.71056545       2.71525172       0.00000000
Si       2.71295157      -0.00045612      -2.71535507       0.00000000
Si       0.00194705      -2.71473923      -2.71383923       0.00000000
Si      -2.71493248      -2.71460145      -0.00048231       0.00000000
Si       2.71532991      -2.71440874      -0.00037896       0.00000000
Si      -2.71452523       2.71533123      -0.00031006       0.00000000
