10
Lattice="16.28999089631971 0.0 0.0 0.0 16.28999089631971 0.0 0.0 0.0 34.450931932916035" Properties=species:S:1:pos:R:3:initial_magmoms:R:1 pbc="T T T"
Si      -1.61200139      -1.47779622      -0.78017624       0.00000000
Si      -0.48921151       1.68441858      -1.55246321       0.00000000
Si       1.73555289      -1.52935407      -0.55831211       0.00000000
Si      -0.31721517       0.71048835       2.27348717       0.00000000
Si       1.11254184      -3.29033565       0.93193268       0.00000000
Si      -2.65894244       2.34098703      -0.93110586       0.00000000
Si      -1.09904069      -3.51013662       0.23120033       0.00000000
Si       0.94011219      -2.36328804      -2.82456459       0.00000000
Si       0.92712906       2.76263739       2.55536485       0.00000000
Si       0.76820382       3.58966440      -1.32102172       0.00000000
