10
Lattice="16.28999089631971 0.0 0.0 0.0 16.28999089631971 0.0 0.0 0.0 34.450931932916035" Properties=species:S:1:pos:R:3:initial_magmoms:R:1 pbc="T T T"
Si       1.02436407       0.44994609       2.06636805       0.00000000
Si      -0.31358250       1.77530049      -1.53175819       0.00000000
Si       1.28023110      -1.91026314      -0.58980028       0.00000000
Si      -1.66015463      -1.72121769       0.12295544       0.00000000
Si      -1.94625818      -1.54166931       2.41508058       0.00000000
Si       0.33604641      -1.57288095       3.10003439       0.00000000
Si      -2.64042071       2.08761237      -1.11300688       0.00000000
Si       3.30910173       0.42652107       1.31395928       0.00000000
Si      -0.25246242      -3.60028548       0.23554115       0.00000000
Si       1.11617451      -2.22552351      -2.87331268       0.00000000
