10
Lattice="16.28999089631971 0.0 0.0 0.0 16.28999089631971 0.0 0.0 0.0 34.450931932916035" Properties=species:S:1:pos:R:3:initial_magmoms:R:1 pbc="T T T"
Si      -1.35675663       1.35571896      -1.35416354       0.00000000
Si      -1.35613110      -1.35865116       1.35712632       0.00000000
Si       1.35839052       1.35643572       1.35722967       0.00000000
Si       1.36070370      -1.35975888      -1.35967569       0.00000000
Si      -2.69703072       0.01171251      -2.71844877       0.00000000
Si      -2.71206337       2.71368239       0.00120578       0.00000000
Si       2.69617419       0.02945232      -2.73049282       0.00000000
Si      -2.71377698      -0.00161271       2.71463160       0.00000000
Si       0.00131949       2.71401289       2.71466605       0.00000000
Si       2.71709055       2.71294025      -0.00068902       0.00000000
