10
Lattice="16.28999089631971 0.0 0.0 0.0 16.28999089631971 0.0 0.0 0.0 34.450931932916035" Properties=species:S:1:pos:R:3:initial_magmoms:R:1 pbc="T T T"
Si      -1.35547290      -1.35742222      -1.35643730       0.00000000
Si       1.35553163       1.35686089      -1.35795314       0.00000000
Si       1.35790996      -1.35709173       1.35702297       0.00000000
Si      -1.35741995       1.35731701       1.35740193       0.00000000
Si       0.00298433       2.71303597      -2.71284015       0.00000000
Si      -0.00016616      -2.71538566      -2.71180662       0.00000000
Si       0.00134067       2.71402966       2.71377033       0.00000000
Si      -2.71490673      -0.00111912       2.71339137       0.00000000
Si       0.00053920      -2.71439197       2.71421819       0.00000000
Si      -2.71414110      -2.71465261       0.00003445       0.00000000
