10
Lattice="16.28999089631971 0.0 0.0 0.0 16.28999089631971 0.0 0.0 0.0 34.450931932916035" Properties=species:S:1:pos:R:3:initial_magmoms:R:1 pbc="T T T"
Si      -1.31555434       1.36312995      -1.38623737       0.00000000
Si       1.40048388      -1.35998694      -1.38317124       0.00000000
Si       0.96047469       1.82701214       1.21580852       0.00000000
Si      -1.71142088      -0.93356361       1.48276894       0.00000000
Si       2.38811400       0.61669120       2.67628769       0.00000000
Si      -3.52372967       0.67458423       1.16085925       0.00000000
Si      -2.65332239       2.68033121       0.17211695       0.00000000
Si      -2.60296819      -2.74266585       0.08953802       0.00000000
Si      -2.66407812       0.00358380      -2.75235539       0.00000000
Si       2.86019820      -2.57888619       0.02115288       0.00000000
