10
Lattice="16.28999089631971 0.0 0.0 0.0 16.28999089631971 0.0 0.0 0.0 34.450931932916035" Properties=species:S:1:pos:R:3:initial_magmoms:R:1 pbc="T T T"
Si      -1.81230878       1.60814784      -0.32190969       0.00000000
Si       1.71142088       0.93356361      -1.48276894       0.00000000
Si      -0.89154730      -1.80910224      -1.39323092       0.00000000
Si       0.29680869      -0.27745128       2.65913112       0.00000000
Si       0.39586655       2.29669356      -2.86900631       0.00000000
Si      -2.31501818      -0.44100288      -2.85601830       0.00000000
Si      -3.34527923       0.97284566       1.44249578       0.00000000
Si      -1.99975781      -0.24557175       3.23346293       0.00000000
Si       2.67189557       2.76057575      -0.26696042       0.00000000
Si      -0.94190150       3.61389482      -1.31065199       0.00000000
