10
Lattice="16.28999089631971 0.0 0.0 0.0 16.28999089631971 0.0 0.0 0.0 34.450931932916035" Properties=species:S:1:pos:R:3:initial_magmoms:R:1 pbc="T T T"
Si      -1.25741533      -1.90524582      -0.23144149       0.00000000
Si      -0.25557381       0.82788356       2.18625736       0.00000000
Si       2.14270515      -0.88231527      -0.45499371       0.00000000
Si      -0.54716481       1.25356667      -1.96980204       0.00000000
Si      -0.69483366      -2.44063296      -2.48284560       0.00000000
Si       1.04303241       2.83650344       1.96466884       0.00000000
Si       3.19176486       0.98396554      -1.45227985       0.00000000
Si      -3.42714626      -1.24867737       0.38991587       0.00000000
Si       1.67959674      -2.29817691      -2.33791045       0.00000000
Si       1.53565830       1.85742720      -2.90486975       0.00000000
