10
Lattice="10.86 0.0 0.0 0.0 10.86 0.0 0.0 0.0 10.86" Properties=species:S:1:pos:R:3:initial_magmoms:R:1 pbc="T T T"
Si       1.20517764      -1.32501774       1.38027342       0.00000000
Si       1.20517764       1.38998226      -1.33472658       0.00000000
Si      -1.50982236      -1.32501774      -1.33472658       0.00000000
Si      -0.35405772       2.65320660       2.49606240       0.00000000
Si       2.56267764      -2.68251774       0.02277342       0.00000000
Si      -2.76427182       2.47401660       0.12140394       0.00000000
Si       2.56267764       0.03248226      -2.69222658       0.00000000
Si       2.56267764       0.03248226       2.73777342       0.00000000
Si       2.56267764       2.74748226       0.02277342       0.00000000
Si      -0.15232236      -2.68251774      -2.69222658       0.00000000
