10
Lattice="10.86 0.0 0.0 0.0 10.86 0.0 0.0 0.0 10.86" Properties=species:S:1:pos:R:3:initial_magmoms:R:1 pbc="T T T"
Si       1.35750000       1.35750000       1.35750000       0.00000000
Si      -1.35750000       1.35750000      -1.35750000       0.00000000
Si      -1.35750000      -1.35750000       1.35750000       0.00000000
Si       1.35750000      -1.35750000      -1.35750000       0.00000000
Si      -1.97763858       2.53520184       0.80942838       0.00000000
Si       2.48538702       2.59574634      -0.19016946       0.00000000
Si       2.60439090      -2.63797002       0.20033442       0.00000000
Si      -2.61784644      -2.65193598      -0.00140094       0.00000000
Si      -0.03154830       2.70447666       2.61616314       0.00000000
Si       0.07444530      -2.84192082      -2.48632098       0.00000000
