10
Lattice="10.86 0.0 0.0 0.0 10.86 0.0 0.0 0.0 10.86" Properties=species:S:1:pos:R:3:initial_magmoms:R:1 pbc="T T T"
Si       1.46810910       1.28047002       1.15716558       0.00000000
Si      -1.24689090       1.28047002      -1.55783442       0.00000000
Si       1.46810910      -1.43452998      -1.55783442       0.00000000
Si       0.03891138      -2.48206386       2.27135814       0.00000000
Si       0.11060910       2.63797002       2.51466558       0.00000000
Si      -2.52994560      -0.20395080      -2.68665540       0.00000000
Si      -2.60439090       2.63797002      -0.20033442       0.00000000
Si      -2.73529734      -0.01976520       2.51892270       0.00000000
Si       2.82560910      -0.07702998       2.51466558       0.00000000
Si       2.82560910       2.63797002      -0.20033442       0.00000000
