10
Lattice="16.290000149 0.0 0.0 0.0 16.290000149 0.0 0.0 0.0 29.1751946751" Properties=species:S:1:pos:R:3:initial_magmoms:R:1 pbc="T T T"
Si       1.36743148       1.34851879       1.33911226       0.00000000
Si       1.44226774      -1.33229558      -1.28169548       0.00000000
Si      -1.34877943      -1.38880070       1.33377320       0.00000000
Si      -1.37880190       1.33962445      -1.35737593       0.00000000
Si       0.11688075      -2.66805914      -2.61885008       0.00000000
Si       0.03189582       2.74403424      -2.61451465       0.00000000
Si       0.00188964       2.69607647       2.68866924       0.00000000
Si      -2.71006958      -0.02472822       2.67729091       0.00000000
Si       2.69247638      -0.03523527       2.69876386       0.00000000
Si      -2.79784011      -0.08935065      -2.59380026       0.00000000
