10
Lattice="16.290000149 0.0 0.0 0.0 16.290000149 0.0 0.0 0.0 29.1751946751" Properties=species:S:1:pos:R:3:initial_magmoms:R:1 pbc="T T T"
Si      -1.36705681      -1.35483931      -1.33295629       0.00000000
Si      -1.43669656       1.33382521       1.28239568       0.00000000
Si       1.35285193       1.35262387      -1.36102283       0.00000000
Si       1.36397800      -1.32427927       1.38124124       0.00000000
Si      -0.08720037       2.67719636       2.59545449       0.00000000
Si      -0.09238059      -2.62376516       2.68216317       0.00000000
Si       0.00431685      -2.71280630      -2.66378280       0.00000000
Si      -2.71111214       0.02699253      -2.67559875       0.00000000
Si       2.73158868      -0.01376505      -2.67198103       0.00000000
Si       2.72989451       2.69206913      -0.02792066       0.00000000
