10
Lattice="16.290000149 0.0 0.0 0.0 16.290000149 0.0 0.0 0.0 29.1751946751" Properties=species:S:1:pos:R:3:initial_magmoms:R:1 pbc="T T T"
Si       1.13422384      -0.06543693      -1.00120516       0.00000000
H        0.66901402       0.92238868       1.61575146       0.00000000
H       -0.92580958       1.76845871       0.44617625       0.00000000
Si      -2.28455849       1.19472490       0.17192942       0.00000000
Si      -2.73715985      -1.01330317       0.78291635       0.00000000
Si       0.13572828       0.66933982       3.00259434       0.00000000
Si       1.35570268      -2.19506123      -1.91832740       0.00000000
Si       3.19280745       0.63661321      -0.10430132       0.00000000
Si       0.92028727       1.44225145      -2.83915489       0.00000000
Si      -1.66203614      -0.92492992       2.88402634       0.00000000
