10
Lattice="16.290000149 0.0 0.0 0.0 16.290000149 0.0 0.0 0.0 29.1751946751" Properties=species:S:1:pos:R:3:initial_magmoms:R:1 pbc="T T T"
Si       1.33202843      -1.34154667      -1.39317390       0.00000000
Si       1.35678597       1.36961434       1.34202978       0.00000000
Si      -1.34069959       1.36896274      -1.35970995       0.00000000
Si      -1.34153038      -1.36148563       1.37596053       0.00000000
Si       2.67204872      -2.69377958      -0.02619932       0.00000000
Si      -2.70633917      -2.70057251       0.00347185       0.00000000
Si      -2.68429880       2.73512361      -0.00892761       0.00000000
Si      -2.71156826       0.02096523      -2.71393496       0.00000000
Si       0.01031831       2.72117936       2.70483230       0.00000000
Si      -2.72492606      -0.01609452       2.71125084       0.00000000
