10
Lattice="16.290000149 0.0 0.0 0.0 16.290000149 0.0 0.0 0.0 29.1751946751" Properties=species:S:1:pos:R:3:initial_magmoms:R:1 pbc="T T T"
Si       1.72403588      -0.75886966      -1.37409332       0.00000000
Si       1.36005211       1.34348518       1.34252576       0.00000000
Si      -1.43536567       1.18913743      -1.44671038       0.00000000
Si      -1.18972061      -1.69407857       1.19206928       0.00000000
Si      -1.66263235      -0.66601666      -2.87883316       0.00000000
Si       0.64891216      -0.84724291      -3.47520331       0.00000000
Si       2.57046428      -2.60219720      -0.24723060       0.00000000
Si      -2.64992935      -0.41596515       2.53832946       0.00000000
Si      -0.08477316       2.53646705       2.70077169       0.00000000
Si      -2.90067888       2.39264264      -0.10319266       0.00000000
