10
Lattice="16.290000149 0.0 0.0 0.0 16.290000149 0.0 0.0 0.0 29.1751946751" Properties=species:S:1:pos:R:3:initial_magmoms:R:1 pbc="T T T"
Si      -1.24234546       1.28326757      -1.43629483       0.00000000
Si       1.51057171      -1.26627058      -1.21529273       0.00000000
Si       0.74091808       1.72836902       1.37969496       0.00000000
Si      -0.98078833      -1.69321520       1.27629807       0.00000000
H       -1.94787514       2.10624815      -0.19276051       0.00000000
H        0.02464677       2.96645790       0.92038987       0.00000000
Si       2.51004467      -2.06780375       0.75616270       0.00000000
Si       0.05475069      -2.62573625      -2.50994200       0.00000000
Si       0.66766195      -3.35204220       1.38372113       0.00000000
Si       3.06137973       1.80667505       1.05132814       0.00000000
