10
Lattice="16.290000149 0.0 0.0 0.0 16.290000149 0.0 0.0 0.0 29.1751946751" Properties=species:S:1:pos:R:3:initial_magmoms:R:1 pbc="T T T"
H       -0.15195312       0.79369768       1.27810693       0.00000000
Si       1.07468389       1.15504246      -1.71430526       0.00000000
Si      -2.21669435       0.10891494      -0.78128254       0.00000000
Si       0.84611890      -2.09023508       0.77950285       0.00000000
H       -1.46899963      -1.88494850       1.67798215       0.00000000
H       -1.56807541       2.83590984       0.86621153       0.00000000
Si      -2.75115297      -1.92642284       0.85775072       0.00000000
Si       1.94413007      -0.62731162      -2.99693435       0.00000000
Si       0.70335334      -1.67819582       3.13887167       0.00000000
Si      -2.75797848       2.47811627      -0.03807363       0.00000000
