10
Lattice="16.290000149 0.0 0.0 0.0 16.290000149 0.0 0.0 0.0 29.1751946751" Properties=species:S:1:pos:R:3:initial_magmoms:R:1 pbc="T T T"
Si      -1.50338782      -1.36187659       1.16102687       0.00000000
Si       1.32333445       1.30855942       1.42730887       0.00000000
Si       1.39962052      -1.35498592      -1.30631934       0.00000000
Si      -1.33967332       1.34622190      -1.38634690       0.00000000
H       -0.85827124      -2.20806065       2.23610362       0.00000000
Si      -0.00397476      -2.72236853      -2.62492144       0.00000000
Si       2.69268815       2.67633299       0.07387159       0.00000000
Si      -2.93687526      -0.13636359       2.44625255       0.00000000
Si       2.73614987      -0.00710244      -2.68341771       0.00000000
Si       2.76122019      -2.65665467       0.13096745       0.00000000
