10
Lattice="16.290000149 0.0 0.0 0.0 16.290000149 0.0 0.0 0.0 29.1751946751" Properties=species:S:1:pos:R:3:initial_magmoms:R:1 pbc="T T T"
Si      -1.29885384      -1.29012077       1.47190316       0.00000000
Si      -1.45139340       1.38471517      -1.22455294       0.00000000
Si       1.36210139       1.39514077       1.31791648       0.00000000
Si       1.43189264      -1.30713079      -1.35176262       0.00000000
Si      -2.62424083      -2.62588433       0.13474855       0.00000000
Si      -0.13071422       2.71252937      -2.58772715       0.00000000
Si       0.08514669      -2.51889031      -2.83470568       0.00000000
Si       2.71063648      -2.68014485       0.03535742       0.00000000
Si       2.65609756       0.04256577       2.75012679       0.00000000
Si       0.01108127       2.72104904       2.72378159       0.00000000
