10
Lattice="16.290000149 0.0 0.0 0.0 16.290000149 0.0 0.0 0.0 29.1751946751" Properties=species:S:1:pos:R:3:initial_magmoms:R:1 pbc="T T T"
Si      -1.34732962      -1.35718507      -1.36183974       0.00000000
Si      -1.36953289       1.36407574       1.33549454       0.00000000
Si       1.35102745       1.37547874      -1.34640606       0.00000000
Si       1.34661286      -1.35835795       1.36872508       0.00000000
Si      -0.00470781       2.71795394       2.68423461       0.00000000
Si      -2.70746318      -2.70198974       0.01003627       0.00000000
Si      -2.69990462       0.00972513      -2.71834041       0.00000000
Si       0.03023424      -2.70612740      -2.71247620       0.00000000
Si       2.76920229       0.04452057      -2.64855335       0.00000000
Si       2.71612946      -2.70490565       0.02984622       0.00000000
