10
Lattice="16.290000149 0.0 0.0 0.0 16.290000149 0.0 0.0 0.0 29.1751946751" Properties=species:S:1:pos:R:3:initial_magmoms:R:1 pbc="T T T"
Si      -2.24619554       0.50352390      -0.28019857       0.00000000
Si       0.93338932      -0.81179261      -1.99572919       0.00000000
Si       0.28331780      -1.82801511       1.56869187       0.00000000
Si       1.33185575       1.97560235       0.49218553       0.00000000
Si       2.96640903       0.79042339       1.70056229       0.00000000
Si       1.63006375      -0.61625559       3.05163492       0.00000000
Si       2.77021227      -1.99089866      -1.06399017       0.00000000
Si      -0.94335391      -1.72015886      -3.09169538       0.00000000
H       -1.99402634      -0.61114705      -3.06208256       0.00000000
Si      -2.97680205       1.13658589       1.89994732       0.00000000
