10
Lattice="16.290000149 0.0 0.0 0.0 16.290000149 0.0 0.0 0.0 29.1751946751" Properties=species:S:1:pos:R:3:initial_magmoms:R:1 pbc="T T T"
Si      -1.36743148      -1.34851879      -1.33911226       0.00000000
Si      -1.36554184       1.34755768       1.34955698       0.00000000
Si       1.32504490      -1.38375406       1.35965160       0.00000000
Si       1.38477137       1.33035544      -1.36892931       0.00000000
Si       0.07483626      -2.68081437      -2.62080774       0.00000000
Si       2.69562198      -0.01433520       2.68379698       0.00000000
Si      -0.00706986       2.71306694       2.68006256       0.00000000
Si      -2.69493617       2.71425611      -0.02570335       0.00000000
Si       0.05492988       2.74032012      -2.67857462       0.00000000
Si      -2.72161919      -0.02969667       2.70486147       0.00000000
