10
Lattice="16.290000149 0.0 0.0 0.0 16.290000149 0.0 0.0 0.0 29.1751946751" Properties=species:S:1:pos:R:3:initial_magmoms:R:1 pbc="T T T"
Si       1.37375200       1.34218198      -1.34360524       0.00000000
Si       1.36171369      -1.39409821       1.30523986       0.00000000
Si      -1.35444835      -1.35309628      -1.36058520       0.00000000
Si      -1.35185824       1.36972837       1.35066564       0.00000000
Si       0.00578295       2.69057045      -2.68563502       0.00000000
Si       2.78280444      -0.08423559       2.61791939       0.00000000
Si      -2.73989657       0.01000206       2.66422043       0.00000000
Si       0.01350441      -2.75221182       2.65885219       0.00000000
Si       0.01469358      -2.73219141      -2.68262998       0.00000000
Si       0.02798622       2.73373895       2.68633522       0.00000000
