10
Lattice="16.290000149 0.0 0.0 0.0 16.290000149 0.0 0.0 0.0 29.1751946751" Properties=species:S:1:pos:R:3:initial_magmoms:R:1 pbc="T T T"
Si       1.39046554       1.34480467       1.27505229       0.00000000
Si       1.25783236      -1.40149387      -1.36363693       0.00000000
Si      -1.31497768       1.26322435      -1.47264713       0.00000000
Si      -1.41069772      -1.40440978       1.25713872       0.00000000
Si      -2.17175024      -0.67264669      -2.51437955       0.00000000
Si      -0.46574739      -2.34049835      -2.64253421       0.00000000
Si      -0.03477915       2.70513371       2.54475676       0.00000000
Si       2.72030704      -0.06516000       2.58469760       0.00000000
Si       2.57851154      -0.07367967      -2.72681114       0.00000000
Si       2.68596038       2.65934252      -0.19364452       0.00000000
