10
Lattice="16.290000149 0.0 0.0 0.0 16.290000149 0.0 0.0 0.0 29.1751946751" Properties=species:S:1:pos:R:3:initial_magmoms:R:1 pbc="T T T"
Si       1.42524469      -1.36032904      -1.26970447       0.00000000
Si       1.35612622       1.34972425       1.35393326       0.00000000
Si      -1.32462136      -1.38639304       1.38316680       0.00000000
Si      -1.33920091       1.33636645      -1.42141548       0.00000000
Si       0.03477915      -2.70513371      -2.54475676       0.00000000
Si      -2.68578119       2.61511517       0.03900724       0.00000000
Si       2.69710274       2.70265763      -0.03133416       0.00000000
Si       2.70122411      -0.03445335       2.70459890       0.00000000
Si       0.01138671       2.67949325       2.74112624       0.00000000
Si      -2.71104698      -0.06983523      -2.73320226       0.00000000
