10
Lattice="16.290000149 0.0 0.0 0.0 16.290000149 0.0 0.0 0.0 29.1751946751" Properties=species:S:1:pos:R:3:initial_magmoms:R:1 pbc="T T T"
Si       1.35288451       1.39795894      -1.32008420       0.00000000
Si      -1.35176050       1.36928854       1.35819284       0.00000000
Si       1.37678194      -1.34772058       1.35830954       0.00000000
Si      -1.36259335      -1.36751293      -1.36291630       0.00000000
Si       2.73463491       0.04162095      -2.64413622       0.00000000
Si      -2.70837542      -2.69674436       0.01823450       0.00000000
Si       2.69016320       2.72220563       0.08463724       0.00000000
Si      -2.69860957       0.02125845       2.72557586       0.00000000
Si       0.02187747      -2.69180849       2.73345316       0.00000000
Si      -2.71777475       2.71712315      -0.01309966       0.00000000
