10
Lattice="16.290000149 0.0 0.0 0.0 16.290000149 0.0 0.0 0.0 29.1751946751" Properties=species:S:1:pos:R:3:initial_magmoms:R:1 pbc="T T T"
Si       1.43348743      -1.22551300      -1.28522568       0.00000000
Si      -1.21772638       1.53422479      -1.24370937       0.00000000
Si       1.48660912       1.01794582       1.46687044       0.00000000
Si      -1.12075201      -1.43567029       1.55477530       0.00000000
H        2.07860402      -2.07169706      -0.21014893       0.00000000
Si      -1.99019819       0.34668378       2.83740438       0.00000000
Si      -0.11749977       1.80491573       2.99436693       0.00000000
Si       2.46534491      -0.83867437       2.36637086       0.00000000
Si      -0.00772146      -2.55557522      -2.49491677       0.00000000
Si       0.69994873      -2.32601654       2.69800530       0.00000000
