10
Lattice="16.290000149 0.0 0.0 0.0 16.290000149 0.0 0.0 0.0 29.1751946751" Properties=species:S:1:pos:R:3:initial_magmoms:R:1 pbc="T T T"
Si      -1.36935370      -1.36777357       1.35343728       0.00000000
Si      -1.33323877       1.31176855      -1.44382203       0.00000000
Si       1.38818494      -1.35746200      -1.34809822       0.00000000
Si       1.41172399       1.36146934       1.31956488       0.00000000
Si      -2.69268815      -2.67633299      -0.07387159       0.00000000
Si       2.69537600      -0.06024042       2.67807864       0.00000000
H       -1.11246040       2.94265821       2.14303475       0.00000000
Si       0.07548786       2.43139655       2.94059705       0.00000000
Si       2.72807003       2.68581377      -0.12635777       0.00000000
Si       0.04346172      -2.68343543      -2.75728930       0.00000000
