10
Lattice="16.290000149 0.0 0.0 0.0 16.290000149 0.0 0.0 0.0 29.1751946751" Properties=species:S:1:pos:R:3:initial_magmoms:R:1 pbc="T T T"
Si      -1.41770242       1.36720342      -1.25940563       0.00000000
Si      -1.30175020      -1.23616666       1.50115129       0.00000000
Si       1.18403866      -1.45235125      -1.41117499       0.00000000
Si       1.85460023       0.93278170       1.10644008       0.00000000
Si       3.45418050      -0.84434329       1.01798089       0.00000000
Si      -0.04137660       2.69395877      -2.61754012       0.00000000
Si       2.58010796      -2.73500957      -0.05158174       0.00000000
Si       2.56697822      -0.11559384      -2.75203776       0.00000000
Si       0.14911866      -2.58486464       2.78249667       0.00000000
Si      -2.73512361      -2.64199367       0.18144054       0.00000000
