10
Lattice="16.290000149 0.0 0.0 0.0 16.290000149 0.0 0.0 0.0 29.1751946751" Properties=species:S:1:pos:R:3:initial_magmoms:R:1 pbc="T T T"
Si      -1.43399242       1.34670572      -1.26133119       0.00000000
Si      -1.37951866      -1.34416936       1.33441505       0.00000000
Si       1.34848621       1.38750402       1.33759515       0.00000000
Si       1.35379675      -1.32913369      -1.40073027       0.00000000
Si      -0.10057446       2.68695407      -2.58997831       0.00000000
Si      -0.01154961      -2.69255783       2.67644483       0.00000000
Si       2.69938334      -2.67413384      -0.03486436       0.00000000
Si       2.70651836       0.03458367       2.69182016       0.00000000
Si      -2.73039951       0.03259629       2.68134627       0.00000000
Si      -0.06877638      -2.78901093      -2.62484558       0.00000000
