10
Lattice="16.290000149 0.0 0.0 0.0 16.290000149 0.0 0.0 0.0 29.1751946751" Properties=species:S:1:pos:R:3:initial_magmoms:R:1 pbc="T T T"
Si      -0.67649113       1.34091136      -1.80950392       0.00000000
Si       1.98645149      -0.88163924      -0.93842014       0.00000000
Si      -0.58661920       1.08594028       2.03097283       0.00000000
Si      -1.48315564      -1.85764646      -0.10007092       0.00000000
H        2.52719804       1.38849445       1.01964388       0.00000000
H        1.28925577      -0.77520364       2.77266463       0.00000000
Si      -2.44356518       2.30666402      -0.55975529       0.00000000
Si       0.87700474      -2.00867056      -2.69386243       0.00000000
Si      -0.56638702      -0.39268674      -3.61676136       0.00000000
Si       2.61935057      -2.62083296       0.54303790       0.00000000
