10
Lattice="16.290000149 0.0 0.0 0.0 16.290000149 0.0 0.0 0.0 29.1751946751" Properties=species:S:1:pos:R:3:initial_magmoms:R:1 pbc="T T T"
Si       1.36790389      -1.34743877       1.34057102       0.00000000
Si       1.36331011       1.34924044      -1.34637688       0.00000000
Si      -1.34185618       1.35414373       1.37190518       0.00000000
Si      -1.35428545      -1.36973978      -1.34614348       0.00000000
Si       0.01879866      -2.70333693       2.67889555       0.00000000
Si      -0.00263898       2.71465196      -2.67839957       0.00000000
Si      -2.66867669      -0.01894527       2.73199440       0.00000000
Si      -2.73706212      -0.00990921      -2.66675867       0.00000000
Si       2.71919198       2.69279078       0.02030594       0.00000000
Si       2.72460026      -0.01483205      -2.68989460       0.00000000
