10
Lattice="16.290000149 0.0 0.0 0.0 16.290000149 0.0 0.0 0.0 29.1751946751" Properties=species:S:1:pos:R:3:initial_magmoms:R:1 pbc="T T T"
Si      -0.84251881      -0.93444328      -0.81037021       0.00000000
H        1.43472547       0.90645706       0.54709325       0.00000000
H        0.80938495      -0.74459962       1.65350416       0.00000000
Si       2.08741691       1.74112409      -0.52159413       0.00000000
Si      -1.08986617       2.75786445      -0.05715421       0.00000000
Si      -0.79863355       1.87462064       2.18463858       0.00000000
Si      -2.13447872       0.36110043      -2.23747485       0.00000000
Si       0.58860658      -2.37548927      -1.93335263       0.00000000
Si      -2.67449222      -1.75642040       0.35313656       0.00000000
Si       1.99733321      -1.25586127       2.45106645       0.00000000
