10
Lattice="16.290000149 0.0 0.0 0.0 16.290000149 0.0 0.0 0.0 29.1751946751" Properties=species:S:1:pos:R:3:initial_magmoms:R:1 pbc="T T T"
Si      -1.61135794       0.17835921       1.67640669       0.00000000
Si       0.83445526       1.93445381      -1.00138021       0.00000000
Si       1.77347603      -1.15113286       1.02559562       0.00000000
Si      -1.56097297      -0.77366098      -1.59880067       0.00000000
H       -0.21621717       3.04346561      -0.97176738       0.00000000
Si      -2.04312440       2.46901179       1.37330559       0.00000000
Si       1.11387763       1.19783629      -3.20139411       0.00000000
Si       0.62175673      -2.79080283       2.20625740       0.00000000
Si      -2.47516778      -2.60833853      -0.42765000       0.00000000
Si      -0.40811337      -0.64083232      -3.65533097       0.00000000
