10
Lattice="16.290000149 0.0 0.0 0.0 16.290000149 0.0 0.0 0.0 29.1751946751" Properties=species:S:1:pos:R:3:initial_magmoms:R:1 pbc="T T T"
Si      -1.36067113      -1.35431803      -1.35250367       0.00000000
Si      -1.36896274       1.35355240       1.35005296       0.00000000
Si       1.34884459      -1.35894439       1.36618684       0.00000000
Si       1.35490447       1.34408791      -1.37514363       0.00000000
Si       2.69074964       2.69412167       0.01864295       0.00000000
Si       0.01847286      -2.71329500      -2.68764811       0.00000000
Si      -2.69138821      -2.71362080       0.02911684       0.00000000
Si      -0.02187747       2.69180849      -2.73345316       0.00000000
Si      -0.02630835       2.71352306       2.71451846       0.00000000
Si       2.71366967      -0.00506619       2.71492692       0.00000000
