10
Lattice="16.290000149 0.0 0.0 0.0 16.290000149 0.0 0.0 0.0 29.1751946751" Properties=species:S:1:pos:R:3:initial_magmoms:R:1 pbc="T T T"
Si       1.41542182       1.32585940      -1.23854536       0.00000000
Si      -1.42721578      -1.38877138      -1.17940724       0.00000000
Si       1.29195991      -1.29554371       1.42710465       0.00000000
Si      -1.08123247       1.42131880       1.49759192       0.00000000
H        2.13447872      -0.36110043       2.23747485       0.00000000
Si      -0.54001350      -2.11752083       2.59061141       0.00000000
Si       1.04461255       2.39676401       2.18032065       0.00000000
Si      -2.13959378      -0.34039584       2.67907060       0.00000000
Si       2.64490958       2.46418832       0.38805926       0.00000000
Si       0.00693954      -2.71065602      -2.46191963       0.00000000
