10
Lattice="16.290000149 0.0 0.0 0.0 16.290000149 0.0 0.0 0.0 29.1751946751" Properties=species:S:1:pos:R:3:initial_magmoms:R:1 pbc="T T T"
Si       0.92730826      -1.04089843       1.83643263       0.00000000
Si      -0.76709611      -2.04595886      -0.88199531       0.00000000
Si      -1.29282328       1.50188914       1.32125704       0.00000000
Si       1.98936740       0.60338161      -1.16928345       0.00000000
H       -0.25322805       2.68175756      -1.44046689       0.00000000
Si      -0.15051960      -1.52800201      -3.06374554       0.00000000
Si       2.26023752      -2.58879053       0.68634645       0.00000000
Si      -1.00911664      -2.07195770       2.73569965       0.00000000
Si       2.00564111       0.71718355       2.89572560       0.00000000
Si       0.30331980       2.31379904       2.88125470       0.00000000
