10
Lattice="16.290000149 0.0 0.0 0.0 16.290000149 0.0 0.0 0.0 29.1751946751" Properties=species:S:1:pos:R:3:initial_magmoms:R:1 pbc="T T T"
Si       2.27225628      -0.47991969       0.07197521       0.00000000
Si      -0.27942237       0.73661752       2.20001390       0.00000000
Si      -0.63289909       1.73919372      -1.48145804       0.00000000
Si      -1.52199100      -1.83866861      -0.45393685       0.00000000
H       -1.33009480       1.84562932       2.22962673       0.00000000
Si       2.55176336      -1.31092147      -2.07832417       0.00000000
Si      -1.11387763      -1.19783629       3.20139411       0.00000000
Si      -2.67485060      -1.97149727       1.60259344       0.00000000
Si      -3.03924162      -0.83660554      -1.96562039       0.00000000
Si      -1.74234584       0.61216240      -3.23690032       0.00000000
