10
Lattice="16.290000149 0.0 0.0 0.0 16.290000149 0.0 0.0 0.0 29.1751946751" Properties=species:S:1:pos:R:3:initial_magmoms:R:1 pbc="T T T"
Si       0.62643196      -0.39402252       2.15035772       0.00000000
Si       1.83197342       0.82197712      -1.16350676       0.00000000
Si      -0.87407254      -1.89066629      -1.06956264       0.00000000
Si      -1.59958027       1.77712499       0.08845919       0.00000000
H        2.67449222       1.75642040      -0.35313656       0.00000000
Si      -2.27014184      -0.60800797      -2.42915588       0.00000000
Si       0.54001350       2.11752083      -2.59061141       0.00000000
Si      -1.49291335      -0.99031798       3.15261319       0.00000000
Si      -3.45418050       0.84434329      -1.01798089       0.00000000
Si      -0.54121896       3.53883963      -1.09301949       0.00000000
