10
Lattice="16.290000149 0.0 0.0 0.0 16.290000149 0.0 0.0 0.0 29.1751946751" Properties=species:S:1:pos:R:3:initial_magmoms:R:1 pbc="T T T"
Si       1.30929247       1.33566598      -1.36373612       0.00000000
Si      -1.51057171       1.26627058       1.21529273       0.00000000
Si       0.99947296      -0.80153317       1.97145543       0.00000000
Si      -1.45582102      -1.35946567      -1.29464926       0.00000000
Si      -0.84290977      -2.08577162       2.59901387       0.00000000
Si      -2.49136004      -0.42694461       2.49159080       0.00000000
Si       2.54255951       2.66398192       0.11635068       0.00000000
Si      -2.75291717       2.54953815      -0.22100210       0.00000000
Si       2.67037085      -0.03217275      -2.71072569       0.00000000
Si      -0.12004101      -2.68477121      -2.70634941       0.00000000
