10
Lattice="16.290000149 0.0 0.0 0.0 16.290000149 0.0 0.0 0.0 29.1751946751" Properties=species:S:1:pos:R:3:initial_magmoms:R:1 pbc="T T T"
Si       1.43660557      -1.38051235       1.25818027       0.00000000
Si      -1.25801155      -1.36656811      -1.45557964       0.00000000
Si       1.37896480       1.32460507      -1.39151091       0.00000000
Si      -1.43769025       1.28475973       1.40889933       0.00000000
Si       0.08821035      -2.75998215       2.59662150       0.00000000
Si      -0.04150692       2.71088246       2.65756848       0.00000000
Si      -2.69729822       2.67550872      -0.02147294       0.00000000
Si      -2.59354721      -2.81466768      -0.19780782       0.00000000
Si       2.82748465      -0.03860730       2.59854706       0.00000000
Si      -2.72487719      -0.30779955       2.69310387       0.00000000
