10
Lattice="16.290000149 0.0 0.0 0.0 16.290000149 0.0 0.0 0.0 29.1751946751" Properties=species:S:1:pos:R:3:initial_magmoms:R:1 pbc="T T T"
H        0.88423750      -0.92097145       0.79692044       0.00000000
Si      -1.12267423       1.43358517       1.46336941       0.00000000
Si       1.34995231       1.31916421      -1.38191227       0.00000000
Si      -1.25177248      -1.43430193      -1.36779148       0.00000000
H       -1.24994800      -1.27879759       2.18816878       0.00000000
Si      -2.55887069       2.65569356       0.09120166       0.00000000
Si      -0.53367669      -2.51688647       2.64747387       0.00000000
Si      -2.66699231      -0.11163537      -2.67090155       0.00000000
Si      -0.00501732       2.67836924      -2.68688955       0.00000000
Si       1.78678496      -2.43858044       2.31910705       0.00000000
