10
Lattice="16.290000149 0.0 0.0 0.0 16.290000149 0.0 0.0 0.0 29.1751946751" Properties=species:S:1:pos:R:3:initial_magmoms:R:1 pbc="T T T"
Si      -0.11635947       2.30617695       0.24180401       0.00000000
Si       1.60029703       0.06742431      -1.79226138       0.00000000
Si       0.29123262      -0.88324381       2.24179278       0.00000000
Si      -2.12584502      -0.97544521      -0.68272873       0.00000000
H        1.08986617      -2.75786445       0.05715421       0.00000000
H        2.52459164      -1.85140739       0.60424746       0.00000000
Si      -1.87318712       1.98064085       1.72609204       0.00000000
Si      -1.90653275      -0.16527834       2.70815827       0.00000000
Si       3.17728308      -1.01674036      -0.46443992       0.00000000
Si      -1.04461255      -2.39676401      -2.18032065       0.00000000
