10
Lattice="16.290000149 0.0 0.0 0.0 16.290000149 0.0 0.0 0.0 29.1751946751" Properties=species:S:1:pos:R:3:initial_magmoms:R:1 pbc="T T T"
Si       1.33111619      -1.35700588       1.36230654       0.00000000
Si      -1.34275702      -1.36479250      -1.35014048       0.00000000
Si      -1.32097729       1.32812371       1.41467601       0.00000000
Si       1.35221174       1.36252819      -1.36216066       0.00000000
Si       2.64123945       0.06470388       2.69593386       0.00000000
Si      -2.66136737       2.69482214       0.03999919       0.00000000
Si      -2.67954701       0.01019754      -2.70208983       0.00000000
Si      -2.69859002      -2.71287146       0.02158964       0.00000000
Si       0.02314483      -2.71720460      -2.69835541       0.00000000
Si       2.71061856      -2.70936911       0.00846081       0.00000000
