10
Lattice="16.290000149 0.0 0.0 0.0 16.290000149 0.0 0.0 0.0 29.1751946751" Properties=species:S:1:pos:R:3:initial_magmoms:R:1 pbc="T T T"
Si       1.35984034       1.36231642      -1.34401369       0.00000000
Si      -1.36482508      -1.35387820      -1.34874007       0.00000000
Si       1.35075052      -1.37624437       1.34232153       0.00000000
Si      -1.37450134       1.36414090       1.33234362       0.00000000
Si       2.72898228      -0.01677870      -2.66605846       0.00000000
Si      -0.02292003       2.69918786      -2.69628397       0.00000000
Si       0.00470781      -2.71795394      -2.68423461       0.00000000
Si       2.72779310      -0.03679911       2.67542370       0.00000000
Si      -0.02560788       2.72541476       2.68079194       0.00000000
Si      -2.71321355      -2.70187571       0.02774561       0.00000000
