10
Lattice="16.290000149 0.0 0.0 0.0 16.290000149 0.0 0.0 0.0 29.1751946751" Properties=species:S:1:pos:R:3:initial_magmoms:R:1 pbc="T T T"
Si      -0.84642841       1.84332755      -1.12686272       0.00000000
Si       1.71146000      -0.44686728      -1.52860515       0.00000000
Si       1.37867158       1.02583018       1.63065998       0.00000000
Si      -1.39566205      -1.73944622       0.91303772       0.00000000
H       -2.00195957      -1.15246864      -2.13419467       0.00000000
H        1.11477358      -0.53893836      -2.93105676       0.00000000
Si       2.18864297      -2.47614518      -0.46910796       0.00000000
Si       0.31977270      -3.37279566       0.80695671       0.00000000
Si       2.64117917       2.50828535       0.30216749       0.00000000
Si      -2.57046428       2.60219720       0.24723060       0.00000000
