10
Lattice="16.290000149 0.0 0.0 0.0 16.290000149 0.0 0.0 0.0 29.1751946751" Properties=species:S:1:pos:R:3:initial_magmoms:R:1 pbc="T T T"
Si       1.34473951      -1.32976900      -1.38719298       0.00000000
Si      -1.36200691       1.33983622      -1.36423210       0.00000000
Si      -1.35040843      -1.39119859       1.32922187       0.00000000
Si       1.37086867       1.34799751       1.35422501       0.00000000
Si      -2.72935694      -0.04380381       2.65009963       0.00000000
Si      -2.69716790      -0.06437808      -2.70211901       0.00000000
Si       2.68983740      -2.71394660      -0.03652734       0.00000000
Si      -2.71731863       2.69247638       0.00125453       0.00000000
Si       0.02726946       2.71415837       2.70500735       0.00000000
Si       2.71962419       2.70080057      -0.00329680       0.00000000
