10
Lattice="16.290000149 0.0 0.0 0.0 16.290000149 0.0 0.0 0.0 29.1751946751" Properties=species:S:1:pos:R:3:initial_magmoms:R:1 pbc="T T T"
Si      -1.36547668       1.35444835      -1.33275207       0.00000000
Si       1.34889346       1.36127386       1.34844832       0.00000000
Si      -1.37378458      -1.33358086       1.35384573       0.00000000
Si       1.37450134      -1.36414090      -1.33234362       0.00000000
Si       2.66813912      -0.07905537       2.62559247       0.00000000
Si       0.00171045       2.69977430      -2.67431504       0.00000000
Si       0.00967626      -2.71801910      -2.68108369       0.00000000
Si      -2.68454315       2.71604801       0.05490772       0.00000000
Si      -2.70813107      -0.00552231      -2.69721757       0.00000000
Si       2.73434169      -0.00182448      -2.67635731       0.00000000
