10
Lattice="16.290000149 0.0 0.0 0.0 16.290000149 0.0 0.0 0.0 29.1751946751" Properties=species:S:1:pos:R:3:initial_magmoms:R:1 pbc="T T T"
H        0.53328573       0.25304886      -1.38684288       0.00000000
Si       1.68984317      -0.92931193       1.31046222       0.00000000
Si      -0.85195072       1.87598900       1.11084554       0.00000000
Si      -1.79776442      -1.59426973      -0.11856799       0.00000000
H        1.79730830       2.01332999      -0.96111844       0.00000000
H       -1.06153786       1.09911889      -2.55641808       0.00000000
H       -0.13572828      -0.66933982      -3.00259434       0.00000000
Si      -2.16174818       0.50808510       2.59805109       0.00000000
Si       2.65880495      -2.38604519      -0.20060864       0.00000000
Si       0.42733557      -2.41176710       2.63895471       0.00000000
