10
Lattice="16.290000149 0.0 0.0 0.0 16.290000149 0.0 0.0 0.0 29.1751946751" Properties=species:S:1:pos:R:3:initial_magmoms:R:1 pbc="T T T"
Si      -1.29141583      -1.40414914      -1.32122787       0.00000000
Si       1.40879831      -1.22683249       1.38430464       0.00000000
Si      -1.33911295       1.30114747       1.42191146       0.00000000
Si       1.46651378       1.37772676      -1.21788933       0.00000000
Si       2.07942503       0.65142082       2.67577380       0.00000000
Si       0.43097476       2.31024782       2.56835074       0.00000000
Si      -2.61781280      -0.02959893      -2.65123747       0.00000000
Si      -2.60776187      -2.72849357       0.12469478       0.00000000
Si       0.12146150       2.69177591      -2.64931190       0.00000000
Si       0.11173637      -2.72282465      -2.63489936       0.00000000
