10
Lattice="16.290000149 0.0 0.0 0.0 16.290000149 0.0 0.0 0.0 29.1751946751" Properties=species:S:1:pos:R:3:initial_magmoms:R:1 pbc="T T T"
Si       0.07972326      -0.69322096      -2.22901988       0.00000000
Si      -0.98815141      -1.78768579       1.15167330       0.00000000
Si       1.84005326       0.88146820       1.18460335       0.00000000
Si      -1.63251865       1.73550404      -0.08476736       0.00000000
H        2.53426790      -0.94540645      -0.73723383       0.00000000
Si      -2.30296619      -0.46431387       2.55250861       0.00000000
Si       0.55281745       2.33038226       2.51292370       0.00000000
Si      -2.12315717      -0.30980322      -3.03588907       0.00000000
Si      -2.07285365       1.98397541      -2.36739783       0.00000000
Si       2.01614816       0.33783831      -3.12828691       0.00000000
