10
Lattice="16.290000149 0.0 0.0 0.0 16.290000149 0.0 0.0 0.0 29.1751946751" Properties=species:S:1:pos:R:3:initial_magmoms:R:1 pbc="T T T"
Si      -1.33111619       1.35700588      -1.36230654       0.00000000
Si       1.31012326       1.42170976       1.33362732       0.00000000
Si      -1.35185173      -1.36829485       1.34961533       0.00000000
Si       1.37950237      -1.35236323      -1.35384573       0.00000000
Si       2.66509289       0.06250473       2.63860461       0.00000000
Si      -2.65209347       2.68512959       0.05236947       0.00000000
Si       0.06336810      -2.69096141       2.65272540       0.00000000
Si       2.68332140       2.67411755      -0.09817453       0.00000000
Si      -2.67387320      -0.00778662      -2.71244702       0.00000000
Si      -2.59840717      -0.01410714       2.80399878       0.00000000
