10
Lattice="16.290000149 0.0 0.0 0.0 16.290000149 0.0 0.0 0.0 29.1751946751" Properties=species:S:1:pos:R:3:initial_magmoms:R:1 pbc="T T T"
Si      -1.03246021       1.48724443       1.46967126       0.00000000
Si       0.91419481       1.83467756      -1.17115066       0.00000000
Si      -1.34060185      -1.45549522      -1.29033133       0.00000000
Si       1.50333895      -1.31040019       1.29383236       0.00000000
H       -1.91844074       2.33732180       0.58201596       0.00000000
H        2.76506463      -1.00134631      -1.30448130       0.00000000
Si       2.31697559      -2.29128626      -0.65057767       0.00000000
Si       0.43696296      -3.00117189      -1.92314131       0.00000000
Si       0.86380984       2.78669775       2.10405669       0.00000000
Si       2.47516778       2.60833853       0.42765000       0.00000000
