10
Lattice="16.290000149 0.0 0.0 0.0 16.290000149 0.0 0.0 0.0 29.1751946751" Properties=species:S:1:pos:R:3:initial_magmoms:R:1 pbc="T T T"
Si       0.65269144       0.83466703      -1.06868738       0.00000000
H       -1.43472547      -0.90645706      -0.54709325       0.00000000
H       -0.62534053      -1.65105668       1.10641091       0.00000000
Si      -2.23335902       0.96816358       1.63754533       0.00000000
Si       0.56260774      -2.16231833       1.90397320       0.00000000
Si       1.93504025       2.29907288       0.23401424       0.00000000
Si       1.88879294      -0.53335089      -2.49299121       0.00000000
Si      -2.52459164       1.85140739      -0.60424746       0.00000000
Si      -0.92429461       1.91883170      -2.39650884       0.00000000
Si      -2.27724428      -1.84090034      -1.35746346       0.00000000
