10
Lattice="16.290000149 0.0 0.0 0.0 16.290000149 0.0 0.0 0.0 29.1751946751" Properties=species:S:1:pos:R:3:initial_magmoms:R:1 pbc="T T T"
Si      -1.35811360       1.35779758       1.34007504       0.00000000
Si       1.34907265       1.37392468      -1.33607804       0.00000000
Si       1.38277666      -1.35983057       1.32061519       0.00000000
Si      -1.35606106      -1.37186888      -1.33701165       0.00000000
Si       2.67918374      -0.04572114      -2.62206227       0.00000000
Si       0.00842193      -2.71776498       2.65217107       0.00000000
Si      -2.72670167      -0.01105114      -2.64980788       0.00000000
Si       0.01580130       2.70574622       2.68230905       0.00000000
Si       2.73706212       0.00990921       2.66675867       0.00000000
Si      -2.70200603       0.00166973       2.70439467       0.00000000
