10
Lattice="16.290000149 0.0 0.0 0.0 16.290000149 0.0 0.0 0.0 29.1751946751" Properties=species:S:1:pos:R:3:initial_magmoms:R:1 pbc="T T T"
Si       1.34066701       1.33281523      -1.37304301       0.00000000
Si      -1.43804863       1.37028223       1.23332300       0.00000000
Si      -1.38293956      -1.34853508      -1.34048349       0.00000000
Si       1.33967332      -1.34622190       1.38634690       0.00000000
Si      -0.16371450      -2.70809849       2.54737377       0.00000000
Si       2.69912270       2.64187964       0.01639646       0.00000000
Si      -0.01128897      -2.73613359      -2.64902015       0.00000000
Si       2.71555931      -0.02767671      -2.69085738       0.00000000
Si      -2.81492832       0.05163930       2.58889007       0.00000000
Si      -0.01702305       2.66781332      -2.74964540       0.00000000
