10
Lattice="16.290000149 0.0 0.0 0.0 16.290000149 0.0 0.0 0.0 29.1751946751" Properties=species:S:1:pos:R:3:initial_magmoms:R:1 pbc="T T T"
Si      -1.36230013      -1.35443206       1.34602678       0.00000000
Si       1.31826826      -1.36927225      -1.38135794       0.00000000
Si      -1.39215970       1.35016245      -1.32913434       0.00000000
Si       1.37823175       1.33945667       1.36522406       0.00000000
Si      -0.03776022       2.70866864       2.65187932       0.00000000
Si       2.68586264      -2.70894557      -0.02354438       0.00000000
Si      -0.04826727       2.70629030      -2.69345397       0.00000000
Si       0.00871515      -2.69944850       2.70165220       0.00000000
Si       2.69262299      -0.01133784      -2.71291383       0.00000000
Si      -2.71435385       0.00433314       2.70252746       0.00000000
