10
Lattice="16.290000149 0.0 0.0 0.0 16.290000149 0.0 0.0 0.0 29.1751946751" Properties=species:S:1:pos:R:3:initial_magmoms:R:1 pbc="T T T"
Si      -1.38740302      -1.27526266      -1.37657467       0.00000000
Si       1.20265813      -1.39735621       1.44096870       0.00000000
Si      -1.41944545       1.38189700       1.28315715       0.00000000
Si       1.87310567       0.80246170      -1.19630727       0.00000000
Si       2.51747291      -2.72072813       0.04013340       0.00000000
Si       2.63132372       0.00682551       2.68280503       0.00000000
Si       2.68335398       2.66168828      -0.01577795       0.00000000
Si       3.50562432      -0.93304234      -1.11153991       0.00000000
Si      -0.09881514       2.72267804       2.67694081       0.00000000
Si      -2.72374830      -2.68194164      -0.02550204       0.00000000
