10
Lattice="16.290000149 0.0 0.0 0.0 16.290000149 0.0 0.0 0.0 29.1751946751" Properties=species:S:1:pos:R:3:initial_magmoms:R:1 pbc="T T T"
Si      -1.37632582      -1.32675535       1.35813449       0.00000000
Si      -1.37101528       1.34501644      -1.35562542       0.00000000
Si       1.28910916      -1.36922338      -1.41164179       0.00000000
Si       1.41408604       1.32584311       1.35375821       0.00000000
Si       0.04137660      -2.69395877       2.61754012       0.00000000
Si       0.05300766       2.69368184       2.70074777       0.00000000
Si      -0.00871515       2.69944850      -2.70165220       0.00000000
Si       2.67714749      -0.00949707      -2.72519658       0.00000000
Si       2.60835482      -2.80955262      -0.13449765       0.00000000
Si      -2.72306900       2.70378164       0.00087526       0.00000000
