10
Lattice="16.290000149 0.0 0.0 0.0 16.290000149 0.0 0.0 0.0 29.1751946751" Properties=species:S:1:pos:R:3:initial_magmoms:R:1 pbc="T T T"
Si      -1.36264222      -1.36270738       1.32890094       0.00000000
Si       1.33566598      -1.44150211      -1.28831825       0.00000000
Si       1.38034945       1.34408791       1.35612140       0.00000000
Si      -1.38510613       1.35718507      -1.33855793       0.00000000
Si       2.69109173      -0.10075365      -2.60313924       0.00000000
Si       0.02011815      -2.69957882       2.68117122       0.00000000
Si      -2.71251308       0.00201996       2.68321348       0.00000000
Si      -0.03541446       2.75239993      -2.64885385       0.00000000
Si      -2.69848739      -2.71274114      -0.06488563       0.00000000
Si      -2.70936911       2.70881525       0.04542578       0.00000000
