10
Lattice="16.290000149 0.0 0.0 0.0 16.290000149 0.0 0.0 0.0 29.1751946751" Properties=species:S:1:pos:R:3:initial_magmoms:R:1 pbc="T T T"
Si      -1.34558659       1.34500015      -1.36586591       0.00000000
Si      -1.35562123      -1.37106415       1.34582256       0.00000000
Si       1.35783667       1.34776945       1.36720797       0.00000000
Si       1.34392501      -1.30272760      -1.42392455       0.00000000
Si      -2.76815973      -0.11487708      -2.58998123       0.00000000
Si       0.11476305       2.78237943      -2.58016377       0.00000000
Si      -2.69938334       2.67413384       0.03486436       0.00000000
Si       2.69210171      -2.68773599      -0.06240574       0.00000000
Si       0.00638568      -2.71090037       2.71005466       0.00000000
Si      -2.71093295      -0.01842399       2.71130919       0.00000000
