10
Lattice="16.290000149 0.0 0.0 0.0 16.290000149 0.0 0.0 0.0 29.1751946751" Properties=species:S:1:pos:R:3:initial_magmoms:R:1 pbc="T T T"
Si       1.47124277       1.22591048       1.25044884       0.00000000
Si      -1.26974035      -1.25799526       1.47045899       0.00000000
Si      -1.44570493       1.38044556      -1.19559948       0.00000000
Si       1.42328664      -1.36904419      -1.25462090       0.00000000
H        0.76571309       2.04889106       2.49398317       0.00000000
Si      -0.05058045       2.70340697      -2.57657814       0.00000000
Si      -2.55208916      -2.72240111       0.16775737       0.00000000
Si      -2.84188827      -0.04567716      -2.44426863       0.00000000
Si       0.03240755      -2.71094924      -2.59498769       0.00000000
Si       2.75737575       0.02213811      -2.59215770       0.00000000
