10
Lattice="16.290000149 0.0 0.0 0.0 16.290000149 0.0 0.0 0.0 29.1751946751" Properties=species:S:1:pos:R:3:initial_magmoms:R:1 pbc="T T T"
Si       1.36230013       1.35443206      -1.34602678       0.00000000
Si      -1.35205372       1.35876520       1.35650068       0.00000000
Si       1.37101528      -1.34501644       1.35562542       0.00000000
Si      -1.37331217      -1.35946567      -1.34955698       0.00000000
Si       2.66012444      -2.71423982      -0.05601637       0.00000000
Si      -0.02985957       2.70459452      -2.67516113       0.00000000
Si      -2.68614283      -0.03241710       2.69403748       0.00000000
Si      -0.00531054      -2.67177179       2.71375991       0.00000000
Si       2.68056839      -0.01484019      -2.72738472       0.00000000
Si       0.02990844       2.70434202       2.71130919       0.00000000
