10
Lattice="16.290000149 0.0 0.0 0.0 16.290000149 0.0 0.0 0.0 29.1751946751" Properties=species:S:1:pos:R:3:initial_magmoms:R:1 pbc="T T T"
Si       1.31422834       1.36267480      -1.37957826       0.00000000
Si      -1.38691432       1.47391921       1.22944270       0.00000000
Si       1.59586615      -1.29365407       1.22302416       0.00000000
Si      -1.49120290      -1.34537482      -1.30424790       0.00000000
Si      -1.69551209      -2.33978159       2.15604689       0.00000000
Si      -2.23679621       0.02941974       2.89925580       0.00000000
Si       2.36833796      -0.10611306      -2.85808960       0.00000000
Si       3.46856457       0.16457787       1.37998671       0.00000000
Si       3.12637683       2.11287818       0.00851916       0.00000000
H        2.06984000       1.00074358       3.00667886       0.00000000
