10
Lattice="16.290000149 0.0 0.0 0.0 16.290000149 0.0 0.0 0.0 29.1751946751" Properties=species:S:1:pos:R:3:initial_magmoms:R:1 pbc="T T T"
Si      -1.24986655       1.34179428       1.48831275       0.00000000
Si       1.35707104      -1.38667193       1.39833791       0.00000000
Si      -1.44606331      -1.43952777      -1.27623972       0.00000000
Si       1.52000362       1.37421138      -1.28254156       0.00000000
H       -0.65234935       1.16745870      -2.74343108       0.00000000
Si      -0.03951954      -2.61830476      -2.74932447       0.00000000
Si      -2.58621183      -0.06488470       2.83938538       0.00000000
Si      -2.88441983       2.52697324       0.27993599       0.00000000
Si       3.72288405       0.99079365      -0.47567237       0.00000000
Si       0.13753647       2.61705694       2.86488742       0.00000000
