10
Lattice="10.86 0.0 0.0 0.0 10.86 0.0 0.0 0.0 10.86" Properties=species:S:1:pos:R:3:initial_magmoms:R:1 pbc="T T T"
Si      -1.12006782       1.37862270       1.18131822       0.00000000
Si       1.57417872       1.28396694      -1.44528138       0.00000000
Si       0.17374914      -2.02974486       1.50771552       0.00000000
Si      -1.05729702      -1.61080950      -1.84014012       0.00000000
Si      -2.31712218      -0.19719588       2.43813516       0.00000000
Si      -2.31712218       2.51780412      -0.27686484       0.00000000
Si       0.39787782       2.51780412       2.43813516       0.00000000
Si      -2.31712218      -2.91219588      -0.27686484       0.00000000
Si      -2.31712218      -0.19719588      -2.99186484       0.00000000
Si       0.39787782       2.51780412      -2.99186484       0.00000000
