10
Lattice="10.86 0.0 0.0 0.0 10.86 0.0 0.0 0.0 10.86" Properties=species:S:1:pos:R:3:initial_magmoms:R:1 pbc="T T T"
Si       1.01766888       1.36792560       1.33056720       0.00000000
Si       0.79354020      -0.46462338      -2.31485244       0.00000000
Si      -1.69733112      -1.34707440       1.33056720       0.00000000
Si      -1.69733112       1.36792560      -1.38443280       0.00000000
Si       2.18233872       2.49688776      -0.11973150       0.00000000
Si       2.37516888       0.01042560       2.68806720       0.00000000
Si      -0.33983112      -2.70457440       2.68806720       0.00000000
Si      -0.33983112       2.72542560       2.68806720       0.00000000
Si       0.02094894      -2.70842970      -2.78908692       0.00000000
Si      -0.50027676       2.94374418      -2.64124974       0.00000000
