10
Lattice="10.86 0.0 0.0 0.0 10.86 0.0 0.0 0.0 10.86" Properties=species:S:1:pos:R:3:initial_magmoms:R:1 pbc="T T T"
Si      -1.39687836       1.25282046      -1.30779378       0.00000000
Si       1.31812164      -1.46217954      -1.30779378       0.00000000
Si       1.55086230       1.30883634       1.33864704       0.00000000
Si      -1.39687836      -1.46217954       1.40720622       0.00000000
Si       0.08421930       2.37704766       2.62793538       0.00000000
Si      -0.05571180       2.63123682      -2.58651534       0.00000000
Si      -2.75437836       2.61032046       0.04970622       0.00000000
Si       2.75803818      -0.04294044      -2.64689694       0.00000000
Si      -2.75437836      -0.10467954      -2.66529378       0.00000000
Si      -0.03937836      -2.81967954      -2.66529378       0.00000000
