10
Lattice="16.28999089631971 0.0 0.0 0.0 16.28999089631971 0.0 0.0 0.0 34.61538196595647" Properties=species:S:1:pos:R:3:initial_magmoms:R:1 pbc="T T T"
Si      -1.41186637      -1.89384282       0.00069231       0.00000000
Si       1.28374485      -0.36404892      -1.98688942       0.00000000
Si      -1.39231837       2.00192697       0.16736547       0.00000000
Si       2.04619830      -0.25627428       1.31303140       0.00000000
Si       1.64372127      -2.66512545      -1.54993921       0.00000000
Si       0.15438033       3.60846306      -0.44653868       0.00000000
Si       2.87912229       2.10704634       1.34210834       0.00000000
Si       2.86871298      -2.51507826       0.46980023       0.00000000
Si      -1.54476019      -2.81170287       2.12372410       0.00000000
Si      -3.53170036      -1.33955928      -0.80837347       0.00000000
