10
Lattice="16.28999089631971 0.0 0.0 0.0 16.28999089631971 0.0 0.0 0.0 34.61538196595647" Properties=species:S:1:pos:R:3:initial_magmoms:R:1 pbc="T T T"
Si       0.66992625      -1.94474907      -1.21046597       0.00000000
Si       2.26900152       0.68075910       0.45387714       0.00000000
Si      -1.25258371      -0.99087183       1.81990472       0.00000000
Si      -0.90922961       1.95129765      -1.16235056       0.00000000
Si       2.08953459      -2.88689751       0.47018100       0.00000000
Si       1.14952014      -1.23114933      -3.41820165       0.00000000
Si       3.41699040      -1.15735563       1.30742371       0.00000000
Si      -2.39540282      -2.90929626       0.95891585       0.00000000
Si      -2.89653209       0.53577810       2.57915894       0.00000000
Si       3.40636932       1.22414463      -1.55776229       0.00000000
