10
Lattice="16.28999089631971 0.0 0.0 0.0 16.28999089631971 0.0 0.0 0.0 34.61538196595647" Properties=species:S:1:pos:R:3:initial_magmoms:R:1 pbc="T T T"
Si      -0.45787932      -2.23257708       0.62030799       0.00000000
Si       0.99958698       0.23778513      -2.15775104       0.00000000
Si       2.00555964       0.52263207       1.27796600       0.00000000
Si      -2.06650053       1.31882115      -0.06888465       0.00000000
Si       1.62056178      -3.17990574      -0.50863871       0.00000000
Si       0.19398132       2.36578923      -2.81575520       0.00000000
Si       1.15997832       1.16895315       3.38213071       0.00000000
Si      -2.02662261       2.43361916      -2.10250486       0.00000000
Si       2.73745305       2.69020295       0.49326947       0.00000000
Si       3.39266943      -0.13507668      -1.87695091       0.00000000
