10
Lattice="16.28999089631971 0.0 0.0 0.0 16.28999089631971 0.0 0.0 0.0 34.61538196595647" Properties=species:S:1:pos:R:3:initial_magmoms:R:1 pbc="T T T"
Si       1.33731126       1.35252612       1.36716989       0.00000000
Si      -1.35985336       1.35301482      -1.36125066       0.00000000
Si       1.35547461      -1.36223007      -1.36121604       0.00000000
Si      -1.36177558      -1.36922011       1.38288528       0.00000000
Si       2.56090203      -0.12948921       2.75341287       0.00000000
Si       2.71720458       2.70728397      -0.00211154       0.00000000
Si      -0.00148239       2.71055826      -2.71793208       0.00000000
Si       2.71130760      -2.71727693      -0.00086539       0.00000000
Si      -2.71989962       2.71008585       0.00006923       0.00000000
Si       2.71350675      -0.00363267      -2.71807054       0.00000000
