10
Lattice="16.28999089631971 0.0 0.0 0.0 16.28999089631971 0.0 0.0 0.0 34.61538196595647" Properties=species:S:1:pos:R:3:initial_magmoms:R:1 pbc="T T T"
Si      -0.66180798       1.82498499       1.32193210       0.00000000
Si      -1.70707212      -1.62877194      -0.25310781       0.00000000
Si      -0.89231148       1.39082391      -1.81800088       0.00000000
Si       2.63886271      -1.07458614       1.12119285       0.00000000
Si       2.70074842      -0.88107723      -1.31306602       0.00000000
Si       0.82989405      -2.04820686       2.47207416       0.00000000
Si      -2.07623610       0.69001182       2.70705735       0.00000000
Si      -2.46709836       2.47046388      -0.28062706       0.00000000
Si       1.09212721       2.67032100      -2.00225866       0.00000000
Si      -3.34459179      -0.71980623       1.26311599       0.00000000
