10
Lattice="16.28999089631971 0.0 0.0 0.0 16.28999089631971 0.0 0.0 0.0 34.61538196595647" Properties=species:S:1:pos:R:3:initial_magmoms:R:1 pbc="T T T"
Si      -1.75917339      -1.04904179      -1.09412326       0.00000000
Si      -1.30531770       1.29612362       1.46078724       0.00000000
Si       1.39960422      -1.40782808       1.42593992       0.00000000
Si       0.48153240       1.93527806      -1.88833734       0.00000000
Si      -2.79578754       2.43370319       0.05082926       0.00000000
Si       2.64254751       2.61751955       0.05970811       0.00000000
Si      -0.91359207      -1.69536287      -3.19828797       0.00000000
Si      -3.55669344       0.62191310      -1.25280663       0.00000000
Si       0.04502556       2.65907534       2.81840328       0.00000000
Si      -2.66740605      -0.05963117       2.81238020       0.00000000
