10
Lattice="16.28999089631971 0.0 0.0 0.0 16.28999089631971 0.0 0.0 0.0 34.61538196595647" Properties=species:S:1:pos:R:3:initial_magmoms:R:1 pbc="T T T"
Si       0.53115174       1.55403342      -1.65420080       0.00000000
Si      -2.29946382       0.32915574       0.26421936       0.00000000
Si       0.62464005       1.03252536       2.06387407       0.00000000
Si       0.49344039      -2.29560097      -0.49043101       0.00000000
Si      -2.50097112      -0.87835517       2.31442035       0.00000000
Si       0.96508476       3.35766222       1.43788916       0.00000000
Si       0.13835097       3.72311208      -0.82703117       0.00000000
Si      -1.13197581       0.49272363       3.66275946       0.00000000
Si      -1.00167210       1.50161220      -3.45724782       0.00000000
Si       1.80709857      -3.36493475       1.15397363       0.00000000
