10
Lattice="16.28999089631971 0.0 0.0 0.0 16.28999089631971 0.0 0.0 0.0 34.61538196595647" Properties=species:S:1:pos:R:3:initial_magmoms:R:1 pbc="T T T"
Si      -1.35392706       1.35277047       1.35879296       0.00000000
Si       1.35703845       1.35633798      -1.35737373       0.00000000
Si       1.35324288      -1.35736425       1.36097373       0.00000000
Si      -1.35762489      -1.35814617      -1.35716604       0.00000000
Si      -0.00081450      -2.70257127       2.72329747       0.00000000
Si      -0.00011403       2.71375110      -2.71447054       0.00000000
Si       2.71339272      -0.00013032      -2.71502439       0.00000000
Si      -2.71498914       2.71419093       0.00190385       0.00000000
Si       2.71539639       2.71391400      -0.00117692       0.00000000
Si      -2.71534752      -0.00068418      -2.71467823       0.00000000
