10
Lattice="16.28999089631971 0.0 0.0 0.0 16.28999089631971 0.0 0.0 0.0 34.61538196595647" Properties=species:S:1:pos:R:3:initial_magmoms:R:1 pbc="T T T"
Si       2.10264804       0.15245811       0.98934278       0.00000000
Si      -1.37624436       1.50513084       1.17726980       0.00000000
Si      -0.34044471      -2.32513686       0.62598492       0.00000000
Si      -0.82673379       0.36544986      -2.26492032       0.00000000
Si      -0.43393302      -1.80362880      -3.09208995       0.00000000
Si      -2.11014144       2.88313452      -0.54086565       0.00000000
Si      -3.44478114       0.41607918       1.29624293       0.00000000
Si      -2.98551717       1.16861202      -1.91488939       0.00000000
Si      -0.96508476      -3.35766222      -1.43788916       0.00000000
Si       2.24762904      -1.15722531       2.90274371       0.00000000
