10
Lattice="16.28999089631971 0.0 0.0 0.0 16.28999089631971 0.0 0.0 0.0 34.61538196595647" Properties=species:S:1:pos:R:3:initial_magmoms:R:1 pbc="T T T"
Si      -1.50858432      -1.12446612       1.35153554       0.00000000
Si      -0.86307678       0.76305618      -2.08630485       0.00000000
Si       1.18780164       1.62732213       1.41285672       0.00000000
Si       1.76873562      -1.62289125      -0.58763105       0.00000000
Si       1.39388643       1.87815555      -2.02271636       0.00000000
Si       3.02513445       0.07885989      -1.85905474       0.00000000
Si      -0.01811448      -2.26204569       2.76149353       0.00000000
Si      -2.26949022      -2.93625621       0.04789966       0.00000000
Si       2.68534134       0.44336493       2.76615622       0.00000000
Si      -3.00421809       1.78569351      -1.73194699       0.00000000
