10
Lattice="16.28999089631971 0.0 0.0 0.0 16.28999089631971 0.0 0.0 0.0 34.61538196595647" Properties=species:S:1:pos:R:3:initial_magmoms:R:1 pbc="T T T"
Si       1.35715248      -1.35755973      -1.35744296       0.00000000
Si       1.35770634       1.35843939       1.35737373       0.00000000
Si      -1.35772263      -1.35711990       1.35893142       0.00000000
Si      -1.35850455       1.35816246      -1.35744296       0.00000000
Si       2.71282257      -0.00131949      -2.71485131       0.00000000
Si       2.71430496      -2.71497285      -0.00034615       0.00000000
Si       0.00034209      -2.71567332      -2.71384746       0.00000000
Si      -0.00122175       2.71474479      -2.71495516       0.00000000
Si       2.71453302       2.71544526      -0.00069231       0.00000000
Si      -2.71534752      -2.71526607       0.00000000       0.00000000
