10
Lattice="16.28999089631971 0.0 0.0 0.0 16.28999089631971 0.0 0.0 0.0 34.61538196595647" Properties=species:S:1:pos:R:3:initial_magmoms:R:1 pbc="T T T"
Si      -1.35728280      -1.35658233       1.35751219       0.00000000
Si       1.35790182       1.35824391       1.35688912       0.00000000
Si       1.36155078      -1.35351981      -1.36035066       0.00000000
Si      -1.35870003       1.35651717      -1.36062758       0.00000000
Si      -2.69928558      -0.01892898      -2.71239362       0.00000000
Si      -2.71485882       0.00087966       2.71422823       0.00000000
Si       0.00122175      -2.71474479       2.71495516       0.00000000
Si       2.71476108       2.71513575       0.00065769       0.00000000
Si       2.71575477       0.00070047       2.71426285       0.00000000
Si       2.71404432      -2.71606428       0.00010385       0.00000000
