10
Lattice="16.28999089631971 0.0 0.0 0.0 16.28999089631971 0.0 0.0 0.0 34.61538196595647" Properties=species:S:1:pos:R:3:initial_magmoms:R:1 pbc="T T T"
Si      -1.34763912       1.23430959      -1.44492647       0.00000000
Si       1.34723187       1.35847197       1.36208489       0.00000000
Si      -1.37023335      -1.35790182       1.36319258       0.00000000
Si       1.17089262      -1.38026799      -1.53322689       0.00000000
Si      -2.13682446      -0.51266259      -2.87056319       0.00000000
Si       2.67573024      -2.71621089      -0.02382924       0.00000000
Si      -0.49897899      -2.44035603      -2.90088629       0.00000000
Si       2.70169650       2.72359026      -0.02293616       0.00000000
Si       2.70322776       0.00071676       2.72447785       0.00000000
Si      -0.01153332      -2.71441899       2.72382016       0.00000000
