10
Lattice="16.28999089631971 0.0 0.0 0.0 16.28999089631971 0.0 0.0 0.0 34.61538196595647" Properties=species:S:1:pos:R:3:initial_magmoms:R:1 pbc="T T T"
Si       2.37105837       0.14889060      -0.23548858       0.00000000
Si      -0.48778776      -1.54007289       1.76313547       0.00000000
Si      -0.74523492      -0.91611702      -2.14324719       0.00000000
Si      -0.77397048       2.36892438      -0.08740389       0.00000000
Si       0.36127962       2.69882946      -2.11223179       0.00000000
Si       2.56349214       2.27812392      -1.19035442       0.00000000
Si      -0.35505684       0.94260456      -3.53018247       0.00000000
Si       2.91962412      -0.89953380      -2.21026260       0.00000000
Si       1.07326665      -1.02356586       3.48597860       0.00000000
Si      -2.81676092      -1.97772003      -1.73225853       0.00000000
