10
Lattice="16.28999089631971 0.0 0.0 0.0 16.28999089631971 0.0 0.0 0.0 34.61538196595647" Properties=species:S:1:pos:R:3:initial_magmoms:R:1 pbc="T T T"
Si      -1.42392519      -0.09197334      -1.83136242       0.00000000
Si       1.49244093      -1.62155547      -0.86739273       0.00000000
Si      -1.13736780      -0.54338553       2.01163943       0.00000000
Si       1.64757060       1.77371337       0.12326544       0.00000000
Si       2.02300623      -0.46517724      -2.82911675       0.00000000
Si       2.96122878       0.70437960       1.76767008       0.00000000
Si       3.17501874      -1.41540552       0.72643881       0.00000000
Si       0.01062108      -2.38150026       2.86518600       0.00000000
Si      -0.07363080       0.30221208      -3.71876718       0.00000000
Si      -3.04631145       1.57983678      -1.49019303       0.00000000
