10
Lattice="16.28999089631971 0.0 0.0 0.0 16.28999089631971 0.0 0.0 0.0 34.61538196595647" Properties=species:S:1:pos:R:3:initial_magmoms:R:1 pbc="T T T"
Si      -1.36045935       1.35586557       1.36100835       0.00000000
Si       1.35700587      -1.36024314       1.36107758       0.00000000
Si       1.36392912       1.34482095      -1.38157682       0.00000000
Si      -1.36013355      -1.35160478      -1.38536721       0.00000000
Si       2.71518462       2.71270854      -0.00031154       0.00000000
Si      -0.11719026       2.67374286      -2.75159902       0.00000000
Si      -2.71471221       2.71529865       0.00709616       0.00000000
Si      -2.71459818      -2.71672307      -0.00034615       0.00000000
Si       2.71538010      -2.71628324       0.00533077       0.00000000
Si      -0.00148239       2.71419093       2.71834746       0.00000000
