10
Lattice="16.28999089631971 0.0 0.0 0.0 16.28999089631971 0.0 0.0 0.0 34.61538196595647" Properties=species:S:1:pos:R:3:initial_magmoms:R:1 pbc="T T T"
Si      -1.36392912      -1.34482095       1.38157682       0.00000000
Si       1.35125550       1.36788759       1.38126528       0.00000000
Si      -1.48111938       1.32892191      -1.37002220       0.00000000
Si       1.30925988      -1.48550954      -1.48132456       0.00000000
Si       2.70117522      -2.70934370       0.02147193       0.00000000
Si      -2.72406267      -2.69642573      -0.00379039       0.00000000
Si       2.69879688       2.73432537      -0.00083077       0.00000000
Si      -2.72552877       2.71293660       0.03571963       0.00000000
Si      -0.00692325      -2.70506409       2.74265440       0.00000000
Si       2.70904329       0.01119123       2.74210055       0.00000000
