10
Lattice="16.28999089631971 0.0 0.0 0.0 16.28999089631971 0.0 0.0 0.0 34.61538196595647" Properties=species:S:1:pos:R:3:initial_magmoms:R:1 pbc="T T T"
Si       2.04714801       1.30658832       0.11890390       0.00000000
Si       0.85577886      -1.90356958      -1.26595446       0.00000000
Si      -0.20626398      -1.13762844       2.22563184       0.00000000
Si      -1.78613334       1.04427045      -1.51916612       0.00000000
Si       2.95050996      -2.39808674      -0.26491167       0.00000000
Si      -1.43832555      -0.14090850      -3.55340941       0.00000000
Si       3.84430968      -0.23076414      -0.59154259       0.00000000
Si      -0.36463536      -3.86459792      -0.69940418       0.00000000
Si      -0.58108059      -3.50346491       1.71709698       0.00000000
Si       1.99531323      -0.96184305       3.33235545       0.00000000
