10
Lattice="16.28999089631971 0.0 0.0 0.0 16.28999089631971 0.0 0.0 0.0 34.61538196595647" Properties=species:S:1:pos:R:3:initial_magmoms:R:1 pbc="T T T"
Si      -1.35684297       1.35430173       1.35737373       0.00000000
Si      -1.35690813      -1.35765747      -1.35633527       0.00000000
Si       1.35870003       1.35627282      -1.35647373       0.00000000
Si       1.35620766      -1.35602847       1.36360450       0.00000000
Si      -2.69312796       0.01396053       2.73285132       0.00000000
Si      -2.71318095       2.71383255      -0.00069231       0.00000000
Si      -2.71267596      -2.71547784       0.00038077       0.00000000
Si       0.00070047       2.71456560      -2.71402054       0.00000000
Si      -2.71518462      -0.00021177      -2.71453977       0.00000000
Si       2.71581993      -0.00070047      -2.71415900       0.00000000
