10
Lattice="16.28999089631971 0.0 0.0 0.0 16.28999089631971 0.0 0.0 0.0 34.61538196595647" Properties=species:S:1:pos:R:3:initial_magmoms:R:1 pbc="T T T"
Si       1.22173371       1.95072750      -0.13015391       0.00000000
Si       0.14498100      -1.30968342       1.91340092       0.00000000
Si      -2.10264804      -0.15245811      -0.98934278       0.00000000
Si      -0.43349319      -3.29328414       0.68701187       0.00000000
Si      -2.44309275      -2.47759497      -0.36335787       0.00000000
Si       2.48565852      -0.88526376       2.29950111       0.00000000
Si      -0.01731627       3.03758001      -1.79647010       0.00000000
Si      -3.47889240       1.35267273       0.18792701       0.00000000
Si       1.36045935       2.95927398       2.01967020       0.00000000
Si       3.51732051       2.08034703      -0.69341572       0.00000000
