10
Lattice="16.28999089631971 0.0 0.0 0.0 16.28999089631971 0.0 0.0 0.0 34.61538196595647" Properties=species:S:1:pos:R:3:initial_magmoms:R:1 pbc="T T T"
Si      -0.46071378       1.97042211       1.16460056       0.00000000
Si      -2.34067752      -0.42441966      -0.38610019       0.00000000
Si       1.79608653      -0.50471307      -1.54073151       0.00000000
Si       0.87061905      -1.75124016       1.56451229       0.00000000
Si       1.89063369       2.16821529       1.67285850       0.00000000
Si       2.81113272      -0.17943435       1.99107788       0.00000000
Si      -2.48565852       0.88526376      -2.29950111       0.00000000
Si       1.06894980      -2.77861788      -2.05155099       0.00000000
Si       0.81785574      -3.66117424       0.15455777       0.00000000
Si       3.82202496      -0.33016572      -0.20945779       0.00000000
