10
Lattice="16.28999089631971 0.0 0.0 0.0 16.28999089631971 0.0 0.0 0.0 34.61538196595647" Properties=species:S:1:pos:R:3:initial_magmoms:R:1 pbc="T T T"
Si      -0.14498100       1.30968342      -1.91340092       0.00000000
Si      -0.57847419      -1.98360072      -1.22638905       0.00000000
Si       2.34067752       0.42441966       0.38610019       0.00000000
Si      -1.25058330       0.41044284       2.10603563       0.00000000
Si       1.87996374       2.39484177       1.55070075       0.00000000
Si      -2.58807375      -1.16791155      -2.27675879       0.00000000
Si      -2.24762904       1.15722531      -2.90274371       0.00000000
Si       1.20805011      -2.52998361      -2.77217441       0.00000000
Si       3.21129657      -1.32682050       1.95061248       0.00000000
Si       1.07675271       3.26041092      -2.04355483       0.00000000
