10
Lattice="16.28999089631971 0.0 0.0 0.0 16.28999089631971 0.0 0.0 0.0 34.61538196595647" Properties=species:S:1:pos:R:3:initial_magmoms:R:1 pbc="T T T"
Si      -1.35617508      -1.35822762       1.35630065       0.00000000
Si      -1.35705474       1.35698958      -1.35747758       0.00000000
Si       1.35770634      -1.35749457      -1.35702758       0.00000000
Si       1.35734796       1.35816246       1.35685450       0.00000000
Si      -0.00138465       2.71443528       2.71159746       0.00000000
Si       0.00138465       2.71404432      -2.71408977       0.00000000
Si      -2.71430496       2.71461447      -0.00024231       0.00000000
Si       2.71463076      -0.00158013      -2.71474746       0.00000000
Si       2.71575477       2.71456560       0.00006923       0.00000000
Si      -2.71453302      -2.71580364       0.00010385       0.00000000
