10
Lattice="16.28999089631971 0.0 0.0 0.0 16.28999089631971 0.0 0.0 0.0 34.61538196595647" Properties=species:S:1:pos:R:3:initial_magmoms:R:1 pbc="T T T"
Si      -0.63188910       1.32991560      -1.78996240       0.00000000
Si       1.89105723      -1.15248492      -0.76853114       0.00000000
Si      -1.46399859      -1.88672409      -0.21752318       0.00000000
Si       0.02441871       1.26757377       2.05397407       0.00000000
Si      -0.22494861      -2.97357660       1.44879301       0.00000000
Si      -2.49352659       2.37084660      -0.73554266       0.00000000
Si      -1.57762134      -0.29302452      -3.24495157       0.00000000
Si      -1.02019383      -2.46164706      -2.45173964       0.00000000
Si       2.07063819      -2.84395707       0.88553120       0.00000000
Si      -3.45864393       0.86048667       0.79030423       0.00000000
