10
Lattice="16.28999089631971 0.0 0.0 0.0 16.28999089631971 0.0 0.0 0.0 34.61538196595647" Properties=species:S:1:pos:R:3:initial_magmoms:R:1 pbc="T T T"
Si       0.14356377       1.31996960       1.95829710       0.00000000
Si      -0.62659485      -2.17284165       0.73100804       0.00000000
Si      -1.97219772       0.62596233      -1.21143520       0.00000000
Si       2.09259711       0.42626043      -1.19419673       0.00000000
Si      -1.86168636      -1.57633443       2.61917434       0.00000000
Si       1.46855979      -3.19777587       0.66880417       0.00000000
Si      -1.25138151       2.67394553      -2.03116252       0.00000000
Si       0.84274686       1.97446107      -3.04307454       0.00000000
Si      -0.71180784       0.15250698       3.77186720       0.00000000
Si      -2.35382355      -0.99777879      -2.90000909       0.00000000
