10
Lattice="16.28999089631971 0.0 0.0 0.0 16.28999089631971 0.0 0.0 0.0 34.61538196595647" Properties=species:S:1:pos:R:3:initial_magmoms:R:1 pbc="T T T"
Si      -1.35625233      -1.35654975       1.35834296       0.00000000
Si      -1.35558444       1.35949824      -1.35619681       0.00000000
Si       1.35859902       1.35840681       1.35841219       0.00000000
Si       1.35954873      -1.35684297      -1.36010835       0.00000000
Si      -2.71280208      -2.71423980       0.00013846       0.00000000
Si       2.71460957       2.71412577       0.00100385       0.00000000
Si      -2.71444737       2.71463076       0.00076154       0.00000000
Si      -2.71337223       0.00042354       2.71602823       0.00000000
Si       0.00125934      -2.71410948       2.71540516       0.00000000
Si       0.00138881       2.71590138       2.71526669       0.00000000
