10
Lattice="16.28999089631971 0.0 0.0 0.0 16.28999089631971 0.0 0.0 0.0 34.61538196595647" Properties=species:S:1:pos:R:3:initial_magmoms:R:1 pbc="T T T"
Si      -1.38681657       1.25255439      -1.39100606       0.00000000
Si       1.35351722       1.36205577       1.35898681       0.00000000
Si      -1.36021500      -1.35441413       1.36120219       0.00000000
Si       1.28335456      -1.38829407      -1.49278226       0.00000000
Si       0.43869852       2.10359286      -2.69868644       0.00000000
Si      -2.54402559      -0.35090289      -2.74894198       0.00000000
Si       2.71444247       2.70661608      -0.00953308       0.00000000
Si       2.69717507      -2.72438640      -0.02407847       0.00000000
Si       2.71066319       0.00403992       2.71982208       0.00000000
Si      -0.00615583      -2.71243192       2.72082593       0.00000000
