10
Lattice="16.28999089631971 0.0 0.0 0.0 16.28999089631971 0.0 0.0 0.0 34.61538196595647" Properties=species:S:1:pos:R:3:initial_magmoms:R:1 pbc="T T T"
Si      -1.81491777      -0.74925855      -1.47056609       0.00000000
Si       0.83694762       1.99081719      -1.22140444       0.00000000
Si      -1.46725659       0.01927107       2.00132404       0.00000000
Si       1.85445360      -1.83365127       0.06168465       0.00000000
Si       2.14786908       0.57878370      -2.87996677       0.00000000
Si      -0.56783682      -2.17061644      -2.88709755       0.00000000
Si       3.43821627      -0.85848300      -1.46471609       0.00000000
Si       0.81624303      -3.58465427      -1.34802757       0.00000000
Si      -3.58678107      -1.59503535      -0.14355007       0.00000000
Si      -2.69343747      -2.05201057       2.02860098       0.00000000
