10
Lattice="16.28999089631971 0.0 0.0 0.0 16.28999089631971 0.0 0.0 0.0 34.61538196595647" Properties=species:S:1:pos:R:3:initial_magmoms:R:1 pbc="T T T"
Si      -0.14076189       0.01257588       2.32695112       0.00000000
Si      -0.03987792       2.02918014      -1.18530057       0.00000000
Si       1.48840005      -1.18974015      -1.37835066       0.00000000
Si      -2.14211871      -0.97653663      -0.42725790       0.00000000
Si      -0.38688750       0.96161499      -3.26973619       0.00000000
Si      -0.01778868      -1.33652934      -3.21206693       0.00000000
Si      -2.17140813       2.70917361      -0.56751950       0.00000000
Si      -1.03456161      -2.15474672       2.65358205       0.00000000
Si      -3.32171019       0.81699237      -1.31940064       0.00000000
Si      -1.90210185      -2.48037079      -2.21566261       0.00000000
