10
Lattice="16.28999089631971 0.0 0.0 0.0 16.28999089631971 0.0 0.0 0.0 34.61538196595647" Properties=species:S:1:pos:R:3:initial_magmoms:R:1 pbc="T T T"
Si       0.27645759      -0.17894891       2.33460113       0.00000000
Si       0.89379972       2.16732260      -0.32663093       0.00000000
Si      -2.09473110       0.49451716      -1.00104279       0.00000000
Si       1.22557815      -2.06002104      -0.48994639       0.00000000
Si       2.64874327       0.05760959       2.17305105       0.00000000
Si      -1.10755710       1.17821009      -3.08083995       0.00000000
Si       1.03456161       2.15474672      -2.65358205       0.00000000
Si       2.95251919       1.97725088       0.78881577       0.00000000
Si      -3.31514532      -1.46651118      -0.43449252       0.00000000
Si      -0.12254967      -3.65363916       0.61816184       0.00000000
