10
Lattice="16.28999089631971 0.0 0.0 0.0 16.28999089631971 0.0 0.0 0.0 34.61538196595647" Properties=species:S:1:pos:R:3:initial_magmoms:R:1 pbc="T T T"
Si      -0.27645759       0.17894891      -2.33460113       0.00000000
Si       2.37228568       0.23655849      -0.16155008       0.00000000
Si      -1.23165432       1.61519260       1.26266599       0.00000000
Si      -0.54628515      -2.28851761       0.43203482       0.00000000
Si       0.94912056      -1.88107213      -2.82454752       0.00000000
Si       0.61734213       2.34627151      -2.66123205       0.00000000
Si      -3.43323153       1.43940721       0.15594238       0.00000000
Si       2.96626632      -1.57320742      -1.63080079       0.00000000
Si       2.67606160       2.15619979      -1.54578536       0.00000000
Si       0.97896384      -2.98872697       2.11070871       0.00000000
