10
Lattice="16.28999089631971 0.0 0.0 0.0 16.28999089631971 0.0 0.0 0.0 34.61538196595647" Properties=species:S:1:pos:R:3:initial_magmoms:R:1 pbc="T T T"
Si      -1.35303111       1.35982404      -1.35990066       0.00000000
Si       1.36004625      -1.35707103      -1.36131989       0.00000000
Si      -1.35340578      -1.34042265       1.38966990       0.00000000
Si       1.36232848       1.36109466       1.38125836       0.00000000
Si      -2.71417464      -2.71151937       0.00214615       0.00000000
Si      -2.71081890       2.71515204      -0.00069231       0.00000000
Si      -2.71168227       0.00078192      -2.71793208       0.00000000
Si       2.71989962      -2.71008585      -0.00006923       0.00000000
Si       2.71613663       2.71614573       0.00159231       0.00000000
Si       0.00294930      -2.71375110      -2.71855516       0.00000000
