10
Lattice="16.28999089631971 0.0 0.0 0.0 16.28999089631971 0.0 0.0 0.0 34.61538196595647" Properties=species:S:1:pos:R:3:initial_magmoms:R:1 pbc="T T T"
Si      -2.18564559      -0.86493384      -0.21596549       0.00000000
Si       1.02037695      -0.52061211      -2.10593178       0.00000000
Si       0.35238528       2.38969413       0.09384235       0.00000000
Si       0.67481325      -0.71693919       2.22528569       0.00000000
Si      -3.15877761       1.25012718      -0.07899235       0.00000000
Si       2.46002525       2.10746988       1.08003514       0.00000000
Si      -1.44964710      -1.37795481       3.01555530       0.00000000
Si       3.20762222      -1.09861389      -1.55187767       0.00000000
Si      -2.26149183      -2.70558981       1.21901597       0.00000000
Si       1.66120926       1.24598952       3.11417458       0.00000000
