10
Lattice="16.28999089631971 0.0 0.0 0.0 16.28999089631971 0.0 0.0 0.0 34.61538196595647" Properties=species:S:1:pos:R:3:initial_magmoms:R:1 pbc="T T T"
Si      -2.29558680      -0.12961953       0.56326181       0.00000000
Si      -0.17958096       1.69147215      -1.65406234       0.00000000
Si       0.90096732      -2.14816230      -0.47554638       0.00000000
Si       1.15593840       1.44762714       1.56544691       0.00000000
Si      -2.15686116       0.87892695       2.71308592       0.00000000
Si       3.02542767      -1.48714668      -1.26581600       0.00000000
Si      -2.07063819       2.84395707      -0.88553120       0.00000000
Si      -0.80816319       0.47991969      -3.57009403       0.00000000
Si       2.74903524       2.49676830       0.16916547       0.00000000
Si      -3.53463678       0.95723298      -1.10305438       0.00000000
