10
Lattice="16.28999089631971 0.0 0.0 0.0 16.28999089631971 0.0 0.0 0.0 34.61538196595647" Properties=species:S:1:pos:R:3:initial_magmoms:R:1 pbc="T T T"
Si       1.91065640      -0.80303184      -1.14403901       0.00000000
Si      -1.01089224       0.15073137       2.20053568       0.00000000
Si      -2.02593843      -0.17454735      -1.33127372       0.00000000
Si       1.23621619       2.08468017       0.29997707       0.00000000
Si      -1.93139127       2.49838101       1.88231629       0.00000000
Si      -2.95140591      -1.42107444       1.77397009       0.00000000
Si       1.72623405       0.03574026      -3.43145935       0.00000000
Si      -3.82202496       0.33016572       0.20945779       0.00000000
Si      -0.35828226       3.81202290       0.61830030       0.00000000
Si       0.83902527       0.07788249       3.84306507       0.00000000
