10
Lattice="16.28999089631971 0.0 0.0 0.0 16.28999089631971 0.0 0.0 0.0 34.61538196595647" Properties=species:S:1:pos:R:3:initial_magmoms:R:1 pbc="T T T"
Si      -1.68399504      -0.99225648      -1.37063978       0.00000000
Si       1.30430611      -1.35244467       1.49635457       0.00000000
Si      -1.37398005       1.35848826       1.46961071       0.00000000
Si       2.00276983       0.63190539      -1.25661665       0.00000000
Si       2.60906897      -2.77239510       0.16915508       0.00000000
Si       2.83030020       2.58525558      -0.03357002       0.00000000
Si      -2.85707052      -2.61389340       0.05103002       0.00000000
Si      -2.82468600       2.70453096       0.09104889       0.00000000
Si       2.69221313       0.00540828       2.84989291       0.00000000
Si      -0.02016702       2.71425609       2.85034291       0.00000000
