10
Lattice="16.28999089631971 0.0 0.0 0.0 16.28999089631971 0.0 0.0 0.0 34.61538196595647" Properties=species:S:1:pos:R:3:initial_magmoms:R:1 pbc="T T T"
Si      -0.78444495       2.08652094       0.58749259       0.00000000
Si      -1.36593279      -1.64550177       1.01537357       0.00000000
Si       2.42817178      -0.24596271      -0.11810775       0.00000000
Si      -0.81681318       0.37196586      -3.10711304       0.00000000
Si       1.96854454      -2.46071853      -0.91135429       0.00000000
Si       0.31464135      -3.29931144       0.68462341       0.00000000
Si       1.38159467       3.07975482      -0.46609638       0.00000000
Si      -3.19029876      -1.71289350      -0.63138492       0.00000000
Si      -2.91312441       2.22848829      -0.55159642       0.00000000
Si      -1.59541002      -1.04236452       3.33380930       0.00000000
