10
Lattice="16.28999089631971 0.0 0.0 0.0 16.28999089631971 0.0 0.0 0.0 34.61538196595647" Properties=species:S:1:pos:R:3:initial_magmoms:R:1 pbc="T T T"
Si      -1.83700701      -1.42312698       0.19356932       0.00000000
Si       1.09160919      -0.61783083       2.01679713       0.00000000
Si       1.04557365      -1.49511249      -1.54962767       0.00000000
Si      -0.78749118       2.34128025      -0.19010778       0.00000000
Si       3.15321362      -1.77733674      -0.56343489       0.00000000
Si       2.35439763      -2.63881710       1.47070456       0.00000000
Si      -0.50148765      -1.66697199       3.41307857       0.00000000
Si      -3.72806424      -0.27064206       0.96210046       0.00000000
Si       2.23442829       1.30059360       2.87778600       0.00000000
Si       1.17846747      -0.57725244      -3.67265946       0.00000000
