10
Lattice="16.28999089631971 0.0 0.0 0.0 16.28999089631971 0.0 0.0 0.0 34.61538196595647" Properties=species:S:1:pos:R:3:initial_magmoms:R:1 pbc="T T T"
Si      -1.43495352       1.27923741      -1.28429716       0.00000000
Si      -1.37929059      -1.32998076       1.36463258       0.00000000
Si       1.33535387       1.38554595       1.36636335       0.00000000
Si       1.47117663      -1.45898127      -1.51928035       0.00000000
Si      -0.02052540       2.41421058      -2.66942240       0.00000000
Si       2.67778997       2.72946392      -0.01995578       0.00000000
Si      -0.02541630      -2.68723098       2.72411785       0.00000000
Si       2.70615086      -2.70604593       0.01182808       0.00000000
Si       2.68956764       0.02906136       2.72370247       0.00000000
Si      -2.73310362      -2.68574859      -0.01609962       0.00000000
