10
Lattice="16.28999089631971 0.0 0.0 0.0 16.28999089631971 0.0 0.0 0.0 34.61538196595647" Properties=species:S:1:pos:R:3:initial_magmoms:R:1 pbc="T T T"
Si      -0.39017808      -1.85872158       1.38693528       0.00000000
Si       0.71633646       1.75622490       1.41795068       0.00000000
Si       2.32876953      -0.32114106      -0.29042322       0.00000000
Si      -1.08765072       0.28810494      -2.14089334       0.00000000
Si      -1.08688509      -2.05397352      -2.56351277       0.00000000
Si       0.56687571       3.60030177      -0.33230785       0.00000000
Si       0.35505684      -0.94260456       3.53018247       0.00000000
Si       0.67937445      -3.61228306       0.06255003       0.00000000
Si      -0.41891364       1.42631982       3.44277858       0.00000000
Si      -3.34322018       0.32063607      -1.83240088       0.00000000
