10
Lattice="16.28999089631971 0.0 0.0 0.0 16.28999089631971 0.0 0.0 0.0 34.61538196595647" Properties=species:S:1:pos:R:3:initial_magmoms:R:1 pbc="T T T"
Si       1.35293337      -1.35559538       1.36041989       0.00000000
Si       1.36208835       1.35575480      -1.35159296       0.00000000
Si      -1.36037790       1.35880103       1.36003912       0.00000000
Si      -1.37386602      -1.36962529      -1.38386144       0.00000000
Si      -0.12838149       2.49333437      -2.76155095       0.00000000
Si       2.71254564      -2.71331520      -0.00141923       0.00000000
Si       2.71187775       0.00201344       2.71744746       0.00000000
Si      -2.71630211      -2.71354326       0.00245769       0.00000000
Si       2.71243161       2.71870652       0.00602308       0.00000000
Si      -0.00317655      -2.71347810       2.71772439       0.00000000
