10
Lattice="16.28999089631971 0.0 0.0 0.0 16.28999089631971 0.0 0.0 0.0 34.61538196595647" Properties=species:S:1:pos:R:3:initial_magmoms:R:1 pbc="T T T"
Si      -1.35626892      -1.35658233       1.35720065       0.00000000
Si       1.35850586      -1.35159759      -1.35993527       0.00000000
Si      -1.35387429       1.35725022      -1.35948527       0.00000000
Si       1.35917701       1.35793440       1.35730450       0.00000000
Si       0.02541630       2.68723098      -2.72411785       0.00000000
Si      -0.02940116      -2.70945054      -2.71347362       0.00000000
Si      -2.71332366       0.00076563       2.71467823       0.00000000
Si       0.00138850      -2.71410948       2.71436669       0.00000000
Si      -2.71444767      -2.71538010      -0.00013846       0.00000000
Si       0.00128616       2.71559187       2.71426285       0.00000000
