10
Lattice="16.28999089631971 0.0 0.0 0.0 16.28999089631971 0.0 0.0 0.0 34.61538196595647" Properties=species:S:1:pos:R:3:initial_magmoms:R:1 pbc="T T T"
Si      -1.36858154       1.27441557      -1.44927762       0.00000000
Si       0.63452808       1.99581822       1.17103903       0.00000000
Si      -1.61960719      -1.13445189       1.37682759       0.00000000
Si       1.35925389      -1.43573544      -1.42262376       0.00000000
Si       0.78509655      -1.60836057       2.99703606       0.00000000
Si       2.60750772       2.71295289       0.03160386       0.00000000
Si      -2.77447112       2.56227039       0.01228847       0.00000000
Si       0.94838751       1.35651717       3.39712087       0.00000000
Si      -2.73394160      -2.69185734      -0.00951924       0.00000000
Si      -0.00632052       2.64225429      -2.81004366       0.00000000
