10
Lattice="16.28999089631971 0.0 0.0 0.0 16.28999089631971 0.0 0.0 0.0 34.61538196595647" Properties=species:S:1:pos:R:3:initial_magmoms:R:1 pbc="T T T"
Si       0.35997642      -2.30107653       0.43695021       0.00000000
Si       1.60572159       1.75798422      -0.23483088       0.00000000
Si      -1.28374485       0.36404892       1.98688942       0.00000000
Si      -0.79186342      -0.17910855      -2.27340110       0.00000000
Si       0.76245345       0.10777464       3.29992082       0.00000000
Si      -0.17124048       3.35753190      -0.62013491       0.00000000
Si       1.58496813      -2.15102934       2.45668965       0.00000000
Si       1.32462135       0.19176588      -3.42408627       0.00000000
Si      -2.69561123      -1.52979390       1.98758173       0.00000000
Si       3.00535839       1.16646174      -2.05868176       0.00000000
