10
Lattice="16.28999089631971 0.0 0.0 0.0 16.28999089631971 0.0 0.0 0.0 34.61538196595647" Properties=species:S:1:pos:R:3:initial_magmoms:R:1 pbc="T T T"
Si      -0.47789810       0.46825605      -2.24539724       0.00000000
Si      -2.00276983      -0.63190539       1.25661665       0.00000000
Si       0.82753037       1.95335019       1.22304663       0.00000000
Si       1.69935162      -1.81747530       0.03091155       0.00000000
Si      -1.70943580       2.37278511      -1.50213534       0.00000000
Si      -0.69846372      -1.98435006       2.75297121       0.00000000
Si       2.06250459       0.70628553       2.75415506       0.00000000
Si       3.36415704      -0.71221509       1.30998667       0.00000000
Si       0.60629914      -3.40430049       1.42577173       0.00000000
Si      -1.42164037      -1.58607585      -3.17700153       0.00000000
