10
Lattice="16.28999089631971 0.0 0.0 0.0 16.28999089631971 0.0 0.0 0.0 34.61538196595647" Properties=species:S:1:pos:R:3:initial_magmoms:R:1 pbc="T T T"
Si       0.47789810      -0.46825605       2.24539724       0.00000000
Si      -1.23153770       1.90452906       0.74326190       0.00000000
Si      -0.94374227      -2.05433190      -0.93160430       0.00000000
Si       1.75646273       0.98321553      -1.47780071       0.00000000
Si       0.47553442       3.53330100       0.99636971       0.00000000
Si      -2.21988458      -1.12295115      -2.76791672       0.00000000
Si      -2.70029297       2.45767230      -0.98861586       0.00000000
Si       0.51603136       1.84461444      -3.30320929       0.00000000
Si       2.17724972      -2.28573135       2.27630879       0.00000000
Si      -1.52487173      -1.10016144       3.50201388       0.00000000
