10
Lattice="16.28999089631971 0.0 0.0 0.0 16.28999089631971 0.0 0.0 0.0 34.61538196595647" Properties=species:S:1:pos:R:3:initial_magmoms:R:1 pbc="T T T"
Si       1.34159553       1.36497168       1.36190835       0.00000000
Si      -1.35734307       1.35589815      -1.35969296       0.00000000
Si       1.35457866      -1.35971001      -1.35872373       0.00000000
Si      -1.36226102      -1.36783872       1.36076604       0.00000000
Si      -2.71440642       2.71215468       0.00231923       0.00000000
Si       2.71275741       2.71503801       0.00107308       0.00000000
Si      -0.00029322       2.71344988      -2.71661669       0.00000000
Si       2.71422351      -0.00141723      -2.71613208       0.00000000
Si       2.71536381      -2.71611315       0.00193846       0.00000000
Si      -2.71547338      -0.00162900      -2.71678977       0.00000000
