10
Lattice="10.86 0.0 0.0 0.0 10.86 0.0 0.0 0.0 10.86" Properties=species:S:1:pos:R:3:initial_magmoms:R:1 pbc="T T T"
Si       1.61410008       0.96353178       1.37011932       0.00000000
Si      -1.64010978      -0.59778870      -1.63956678       0.00000000
Si      -1.10089992      -1.75146822       1.37011932       0.00000000
Si       1.61410008      -1.75146822      -1.34488068       0.00000000
Si      -0.30608910       0.60680250      -3.41304822       0.00000000
Si      -2.48513724       2.47410348       0.11330238       0.00000000
Si       0.25660008       2.32103178       2.72761932       0.00000000
Si      -2.45839992      -0.39396822       2.72761932       0.00000000
Si       2.75992782       2.66900790      -0.06874380       0.00000000
Si      -2.45839992      -3.10896822       0.01261932       0.00000000
