10
Lattice="10.86 0.0 0.0 0.0 10.86 0.0 0.0 0.0 10.86" Properties=species:S:1:pos:R:3:initial_magmoms:R:1 pbc="T T T"
Si       1.15028034       1.56330786       1.12742004       0.00000000
Si      -1.56471966      -1.15169214       1.12742004       0.00000000
Si       1.15028034      -1.15169214      -1.58757996       0.00000000
Si      -1.27563732       1.19135286      -1.65620430       0.00000000
Si       2.50778034       0.20580786       2.48492004       0.00000000
Si      -0.20721966      -2.50919214       2.48492004       0.00000000
Si       2.50778034      -2.50919214      -0.23007996       0.00000000
Si      -3.48490884       1.20657858      -0.94074750       0.00000000
Si       2.50778034       2.92080786      -0.23007996       0.00000000
Si      -2.92221966      -2.50919214      -0.23007996       0.00000000
