10
Lattice="16.28999089631971 0.0 0.0 0.0 16.28999089631971 0.0 0.0 0.0 34.450931932916035" Properties=species:S:1:pos:R:3:initial_magmoms:R:1 pbc="T T T"
Si      -1.40146358      -1.81198557       0.27671004       0.00000000
Si       2.08349589      -0.78648120      -0.81197447       0.00000000
Si       1.06773782       1.35163017       1.69819074       0.00000000
Si      -1.53150665       0.83166966      -1.68551279       0.00000000
Si       2.88884091       1.20562290      -1.70415075       0.00000000
Si       2.67078297       2.40183018       0.31718991       0.00000000
Si      -1.74409115      -2.66035248      -1.84247132       0.00000000
Si      -3.35707808      -1.18573281       1.35757418       0.00000000
Si       2.48123253      -0.09767484       2.96505556       0.00000000
Si       3.67631580      -1.03967667       0.88525164       0.00000000
