10
Lattice="16.28999089631971 0.0 0.0 0.0 16.28999089631971 0.0 0.0 0.0 34.450931932916035" Properties=species:S:1:pos:R:3:initial_magmoms:R:1 pbc="T T T"
Si      -1.34801379      -1.33449897       1.35922094       0.00000000
Si      -1.39220856       1.30843691      -1.34540266       0.00000000
Si       1.36681245       1.38098768       1.34960912       0.00000000
Si       1.31113323      -1.32728250      -1.45813306       0.00000000
Si       2.23014987       0.63672690      -2.47774720       0.00000000
Si       0.34218774       2.26613578      -2.66348193       0.00000000
Si      -2.72554506      -2.66208510      -0.01580954       0.00000000
Si       2.72254770      -2.68155165      -0.01969905       0.00000000
Si       0.00840564      -2.69227047       2.71390124       0.00000000
Si      -2.70466128       0.02145308       2.71397014       0.00000000
