10
Lattice="16.28999089631971 0.0 0.0 0.0 16.28999089631971 0.0 0.0 0.0 34.450931932916035" Properties=species:S:1:pos:R:3:initial_magmoms:R:1 pbc="T T T"
Si       1.39220856      -1.30843691       1.34540266       0.00000000
Si      -1.30639284       1.44542147       1.33292108       0.00000000
Si       1.73439630       0.95769887      -1.31807927       0.00000000
Si      -1.70149050      -0.52802732      -1.58777341       0.00000000
Si      -0.01203831       0.67304741      -3.15921910       0.00000000
Si      -2.68511328      -2.51812190      -0.19196759       0.00000000
Si       2.70334179      -2.63571941      -0.11273040       0.00000000
Si       0.04419477      -2.64293588       2.70462360       0.00000000
Si      -2.67278175       0.07080774       2.69945596       0.00000000
Si       3.62235843      -0.67171000      -1.13234454       0.00000000
