10
Lattice="16.28999089631971 0.0 0.0 0.0 16.28999089631971 0.0 0.0 0.0 34.450931932916035" Properties=species:S:1:pos:R:3:initial_magmoms:R:1 pbc="T T T"
Si      -1.35731538      -1.35537850       1.35733303       0.00000000
Si      -1.35734796       1.35687555      -1.35736748       0.00000000
Si       1.35775521      -1.35809078      -1.35764308       0.00000000
Si       1.35933534       1.35786924       1.35709187       0.00000000
Si       0.00035838       2.71282257      -2.71401148       0.00000000
Si      -0.00423540       2.71306692       2.71514836       0.00000000
Si      -2.71427238       2.71463076       0.00024116       0.00000000
Si       2.71445157       0.00053757      -2.71445935       0.00000000
Si       2.71243161      -0.00052128       2.71656085       0.00000000
Si      -2.71373481      -0.00071676       2.71545842       0.00000000
