10
Lattice="16.28999089631971 0.0 0.0 0.0 16.28999089631971 0.0 0.0 0.0 34.450931932916035" Properties=species:S:1:pos:R:3:initial_magmoms:R:1 pbc="T T T"
Si       0.15596046       2.10520394      -0.98285119       0.00000000
Si       2.06874855      -0.88954477       0.62049608       0.00000000
Si      -0.97295283       0.41242859       2.12328102       0.00000000
Si      -1.13627637      -1.33862423      -1.64465396       0.00000000
Si       1.28133882      -3.16409697       1.01475277       0.00000000
Si       0.64523061      -2.14895304      -2.92946773       0.00000000
Si       1.65258792       1.82379419      -2.82122284       0.00000000
Si      -2.04035508       2.77526051      -1.47329493       0.00000000
Si      -3.28461786       0.51453431       1.77095115       0.00000000
Si       3.40811235       0.70323767       1.75059063       0.00000000
