10
Lattice="16.28999089631971 0.0 0.0 0.0 16.28999089631971 0.0 0.0 0.0 34.450931932916035" Properties=species:S:1:pos:R:3:initial_magmoms:R:1 pbc="T T T"
Si       1.32074433       0.16100059      -1.89738614       0.00000000
Si      -0.70843581      -2.19220461      -0.39921762       0.00000000
Si       1.52383176      -0.07358193       1.79651375       0.00000000
Si      -1.73154555       1.60175986      -0.33644799       0.00000000
Si      -2.96290665      -1.73777877       0.09267306       0.00000000
Si      -2.16153639       0.90844932      -2.51319689       0.00000000
Si      -0.28235457      -0.14065438      -3.62517024       0.00000000
Si      -0.72909153       3.66547480       0.14765678       0.00000000
Si       3.14558271      -1.45056978      -1.55153304       0.00000000
Si       0.45478422       1.43102437       3.50655562       0.00000000
