10
Lattice="16.28999089631971 0.0 0.0 0.0 16.28999089631971 0.0 0.0 0.0 34.450931932916035" Properties=species:S:1:pos:R:3:initial_magmoms:R:1 pbc="T T T"
Si      -1.07865864      -1.66316013      -1.22490805       0.00000000
Si       0.89013447       1.87137891      -1.11698424       0.00000000
Si      -1.39448916       1.25986860       1.42150137       0.00000000
Si       1.33393923      -1.42449534       1.40286340       0.00000000
Si      -1.06872174       3.35652192      -1.06408825       0.00000000
Si      -2.87752099       2.46518199       0.09268339       0.00000000
Si      -0.02969667       2.62945035       2.76826140       0.00000000
Si       0.93884157      -3.39794413      -1.51783109       0.00000000
Si       2.68569972      -0.08462655       2.77380800       0.00000000
Si       2.72746728       2.74351293       0.10513397       0.00000000
