10
Lattice="16.28999089631971 0.0 0.0 0.0 16.28999089631971 0.0 0.0 0.0 34.450931932916035" Properties=species:S:1:pos:R:3:initial_magmoms:R:1 pbc="T T T"
Si       1.35255870       1.38026799      -1.32845968       0.00000000
Si       1.35651717      -1.35721764       1.36246622       0.00000000
Si      -1.35692442       1.36045935       1.36105373       0.00000000
Si      -1.36479249      -1.36958175      -1.34676003       0.00000000
Si      -0.02945232       2.64069045      -2.70426531       0.00000000
Si       0.02969667      -2.62945035      -2.76826140       0.00000000
Si       2.75716395       0.11406258      -2.66312743       0.00000000
Si      -2.71312393      -2.71515204       0.00654568       0.00000000
Si       2.71539639      -2.71407690       0.00554660       0.00000000
Si       2.71293660       2.71726974       0.00733805       0.00000000
