10
Lattice="16.28999089631971 0.0 0.0 0.0 16.28999089631971 0.0 0.0 0.0 34.450931932916035" Properties=species:S:1:pos:R:3:initial_magmoms:R:1 pbc="T T T"
Si      -0.89013447      -1.87137891       1.11698424       0.00000000
Si       1.83733281       0.87213402       1.22211821       0.00000000
Si      -0.07723089       0.20608479      -2.41126655       0.00000000
Si      -1.95885621       1.48514301       0.05289599       0.00000000
Si       0.43272756       2.13833943       2.55678595       0.00000000
Si      -2.26950651       1.26755748      -2.27549536       0.00000000
Si      -2.28462363      -0.61151031       2.53848561       0.00000000
Si       0.13594005      -2.06710326      -3.04885031       0.00000000
Si      -0.94928346       3.39876189       1.18098033       0.00000000
Si       3.49659963       1.82641851      -0.20382186       0.00000000
