10
Lattice="16.28999089631971 0.0 0.0 0.0 16.28999089631971 0.0 0.0 0.0 34.450931932916035" Properties=species:S:1:pos:R:3:initial_magmoms:R:1 pbc="T T T"
Si      -1.40460525       1.26620541       1.33466774       0.00000000
Si       1.31031873      -1.48416561       1.29340584       0.00000000
Si      -1.83733281      -0.87213402      -1.22211821       0.00000000
Si       1.65926682       0.95428449      -1.42594007       0.00000000
Si      -0.04422735       2.60320716       2.67046548       0.00000000
Si       2.69011431       2.61190602      -0.00850938       0.00000000
Si      -2.78661627       2.52662787      -0.04113788       0.00000000
Si       2.67556734      -0.11435580       2.66540119       0.00000000
Si      -2.75716395      -0.11406258       2.66312743       0.00000000
Si      -2.72746728      -2.74351293      -0.10513397       0.00000000
