10
Lattice="16.28999089631971 0.0 0.0 0.0 16.28999089631971 0.0 0.0 0.0 34.450931932916035" Properties=species:S:1:pos:R:3:initial_magmoms:R:1 pbc="T T T"
Si       0.65681280       1.73794752      -1.59662933       0.00000000
Si       0.57173013       1.01577924       2.29546688       0.00000000
Si       1.80245592      -1.83632283      -0.17656112       0.00000000
Si      -1.97710101      -0.98145621      -1.37886487       0.00000000
Si       1.99112670       0.40868352      -3.03133919       0.00000000
Si       1.49004630       3.50621073      -0.29300534       0.00000000
Si      -0.73932165      -2.30467662      -3.02234750       0.00000000
Si       3.46289562      -0.80964558      -1.63549001       0.00000000
Si       0.68701446      -3.53784591      -1.63552446       0.00000000
Si       0.71959446       3.37209516       2.03298508       0.00000000
