10
Lattice="16.28999089631971 0.0 0.0 0.0 16.28999089631971 0.0 0.0 0.0 34.450931932916035" Properties=species:S:1:pos:R:3:initial_magmoms:R:1 pbc="T T T"
Si       1.31173596       1.40287851      -1.37125121       0.00000000
Si       0.21317094      -2.27318805      -0.63758375       0.00000000
Si       0.07723089      -0.20608479       2.41126655       0.00000000
Si      -2.19227562       1.06147269       0.13577120       0.00000000
Si      -1.88162532       1.27905822       2.46416255       0.00000000
Si      -2.24687970      -2.37113982      -0.85331561       0.00000000
Si      -3.22942734      -0.32052204      -1.50664345       0.00000000
Si       0.63151443      -2.03988267      -2.91992482       0.00000000
Si       3.50736732       1.13360481      -0.68588399       0.00000000
Si       1.09493235       3.56796612      -0.69449672       0.00000000
