10
Lattice="16.28999089631971 0.0 0.0 0.0 16.28999089631971 0.0 0.0 0.0 34.450931932916035" Properties=species:S:1:pos:R:3:initial_magmoms:R:1 pbc="T T T"
Si      -1.35643572      -1.35646830       1.35778089       0.00000000
Si       1.35741312      -1.35726651      -1.35753973       0.00000000
Si      -1.35723393       1.35812988      -1.35698852       0.00000000
Si       1.36006839       1.35889551       1.35781534       0.00000000
Si      -2.71357191       0.00104256      -2.71532062       0.00000000
Si       2.71445157      -0.00226431       2.71463160       0.00000000
Si       2.71477737      -2.71467963      -0.00044786       0.00000000
Si      -2.71476108      -2.71482624       0.00034451       0.00000000
Si       2.71479366       0.00115659      -2.71507946       0.00000000
Si       2.71476108       2.71538010      -0.00024116       0.00000000
