10
Lattice="16.28999089631971 0.0 0.0 0.0 16.28999089631971 0.0 0.0 0.0 34.450931932916035" Properties=species:S:1:pos:R:3:initial_magmoms:R:1 pbc="T T T"
Si       1.35382932      -1.35796698      -1.35457695       0.00000000
Si       1.35524655       1.35645201       1.35757418       0.00000000
Si      -1.35791811       1.35571896      -1.35984795       0.00000000
Si      -1.35969372      -1.35769005       1.35747083       0.00000000
Si      -0.00654858      -2.69496873      -2.69037469       0.00000000
Si       2.69783577       0.01296684      -2.72265178       0.00000000
Si       2.71153566       2.71467963      -0.00093018       0.00000000
Si       2.71230129      -0.00043983       2.71421819       0.00000000
Si       2.71233387      -2.71466334      -0.00062012       0.00000000
Si      -0.00267156       2.71404432       2.71476940       0.00000000
