10
Lattice="16.28999089631971 0.0 0.0 0.0 16.28999089631971 0.0 0.0 0.0 34.450931932916035" Properties=species:S:1:pos:R:3:initial_magmoms:R:1 pbc="T T T"
Si       1.35469269       1.35648459      -1.35805650       0.00000000
Si       1.35438318      -1.36115982       1.35681626       0.00000000
Si      -1.36006839      -1.35889551      -1.35781534       0.00000000
Si      -1.36011726       1.35728280       1.36008910       0.00000000
Si       0.00982287      -2.70086571       2.71959254       0.00000000
Si       2.71101438      -2.71650411      -0.00144694       0.00000000
Si       2.71251306      -0.00131949      -2.71514836       0.00000000
Si      -0.00236205       2.71337643      -2.71470050       0.00000000
Si       2.71290402       2.71586880      -0.00034451       0.00000000
Si      -0.00265527      -2.71616202      -2.71535507       0.00000000
