10
Lattice="16.28999089631971 0.0 0.0 0.0 16.28999089631971 0.0 0.0 0.0 34.450931932916035" Properties=species:S:1:pos:R:3:initial_magmoms:R:1 pbc="T T T"
Si       1.33582887      -1.33385778      -1.37522340       0.00000000
Si       1.37753127       1.32758613       1.37503048       0.00000000
Si      -1.33550307      -1.38914604       1.37079301       0.00000000
Si      -1.35177678       1.45240011      -1.52156071       0.00000000
Si      -2.70203859       2.68154207       0.01105187       0.00000000
Si       2.72554506       2.66208510       0.01580954       0.00000000
Si       0.02088378       2.68353819       2.72977968       0.00000000
Si      -2.69620677      -0.02940345       2.73046870       0.00000000
Si      -2.69808012      -2.73704580      -0.00311437       0.00000000
Si       2.72025081      -2.73189816       0.00798918       0.00000000
