10
Lattice="16.28999089631971 0.0 0.0 0.0 16.28999089631971 0.0 0.0 0.0 34.450931932916035" Properties=species:S:1:pos:R:3:initial_magmoms:R:1 pbc="T T T"
Si      -0.56529462       2.04732394      -0.95653066       0.00000000
Si       2.19604675      -0.47887974      -0.75240877       0.00000000
Si       0.24047298       0.68008306       2.29112606       0.00000000
Si      -1.37217090      -1.96266222      -0.31402042       0.00000000
Si       2.61067612      -2.13372351       0.93785824       0.00000000
Si       2.17934950      -0.71302374       2.83655352       0.00000000
Si       0.95123011       3.58658233       0.01794895       0.00000000
Si      -0.97570488      -2.55508065      -2.54795790       0.00000000
Si      -2.74168749       2.52755314      -0.31274573       0.00000000
Si       3.49489732       1.52964403      -0.97389394       0.00000000
