10
Lattice="16.28999089631971 0.0 0.0 0.0 16.28999089631971 0.0 0.0 0.0 34.450931932916035" Properties=species:S:1:pos:R:3:initial_magmoms:R:1 pbc="T T T"
Si       1.35747828      -1.35602847       1.35588609       0.00000000
Si      -1.35886293      -1.35653346      -1.35633395       0.00000000
Si       1.35650088       1.35874613      -1.35660956       0.00000000
Si      -1.35998694       1.35815102       1.36212171       0.00000000
Si      -0.00234576      -2.69764029       2.72507024       0.00000000
Si       2.71432125      -2.71163340       0.00082682       0.00000000
Si       2.71349046       0.00122175      -2.71414929       0.00000000
Si      -0.00094482      -2.71412577      -2.71352917       0.00000000
Si      -2.71652040      -2.71308321      -0.00006890       0.00000000
Si      -0.00138465       2.71604540      -2.71418374       0.00000000
