10
Lattice="16.28999089631971 0.0 0.0 0.0 16.28999089631971 0.0 0.0 0.0 34.450931932916035" Properties=species:S:1:pos:R:3:initial_magmoms:R:1 pbc="T T T"
Si      -0.92391993       1.15672032      -1.84057652       0.00000000
Si      -0.61734213       1.31996241       1.88691305       0.00000000
Si       2.39125797      -0.02047653      -0.35487925       0.00000000
Si      -0.88299945      -2.01694635       1.00855160       0.00000000
Si      -0.19126089       3.37151265      -1.33903957       0.00000000
Si       0.51803829      -2.20806063       2.88175316       0.00000000
Si      -0.00695583      -0.04891887       3.71033299       0.00000000
Si      -3.26132316       1.38396582      -1.55539154       0.00000000
Si       3.16661310      -2.26307196       0.17563095       0.00000000
Si       3.23667639       2.06159724       0.73459763       0.00000000
