10
Lattice="16.28999089631971 0.0 0.0 0.0 16.28999089631971 0.0 0.0 0.0 34.450931932916035" Properties=species:S:1:pos:R:3:initial_magmoms:R:1 pbc="T T T"
Si      -1.64527371      -1.18314270      -1.27854370       0.00000000
Si       2.00598318      -0.92331720      -0.99849192       0.00000000
Si       0.33418935      -0.94157829       2.24720109       0.00000000
Si      -0.02339244       2.30436126      -0.90623227       0.00000000
Si       1.37979558      -2.91550275       1.41204114       0.00000000
Si      -2.25566001       0.18573858      -3.10196364       0.00000000
Si      -1.54722420       2.37794319      -2.70274602       0.00000000
Si       3.21727500       2.20192323       0.66896857       0.00000000
Si       3.95931708       0.01203831       0.12367891       0.00000000
Si       2.24938836      -3.20864130      -0.74779235       0.00000000
