10
Lattice="16.28999089631971 0.0 0.0 0.0 16.28999089631971 0.0 0.0 0.0 34.450931932916035" Properties=species:S:1:pos:R:3:initial_magmoms:R:1 pbc="T T T"
Si      -2.06874855       0.88954477      -0.62049608       0.00000000
Si       1.33936380       1.59278244       1.13009455       0.00000000
Si       1.42483743      -0.46210495      -1.88849779       0.00000000
Si      -0.78740973      -2.27455219       0.39425669       0.00000000
Si      -0.14393844      -2.39392531      -1.93610901       0.00000000
Si       3.49733268       0.67731051       0.67310268       0.00000000
Si      -3.04170138       1.30197336       1.50278494       0.00000000
Si       1.37780820       3.58324125      -0.20326061       0.00000000
Si      -1.91278809       2.99474871      -1.60334727       0.00000000
Si      -3.20502492      -0.44907946      -2.26515004       0.00000000
