10
Lattice="16.28999089631971 0.0 0.0 0.0 16.28999089631971 0.0 0.0 0.0 34.450931932916035" Properties=species:S:1:pos:R:3:initial_magmoms:R:1 pbc="T T T"
Si       0.80107704      -2.16462564       0.36445661       0.00000000
Si       0.90855846       2.09858857       0.51517952       0.00000000
Si       0.86183874      -0.10272800      -2.20696238       0.00000000
Si      -2.19175434       0.15664138       1.00445193       0.00000000
Si      -1.14249915      -0.88515625       2.80330835       0.00000000
Si      -1.10452716      -3.17833605      -0.65959791       0.00000000
Si      -0.79781904       3.34957912      -0.57577875       0.00000000
Si       3.08203542      -0.78325252      -1.52665945       0.00000000
Si      -1.12096377      -0.90912209      -3.30229593       0.00000000
Si      -2.67656103       2.44840003       0.55531488       0.00000000
