10
Lattice="16.28999089631971 0.0 0.0 0.0 16.28999089631971 0.0 0.0 0.0 34.450931932916035" Properties=species:S:1:pos:R:3:initial_magmoms:R:1 pbc="T T T"
Si      -1.57833714      -0.75972162       1.53000119       0.00000000
Si      -0.24047298      -0.68008306      -2.29112606       0.00000000
Si       1.93887652      -1.39310681       0.54542746       0.00000000
Si      -0.92360946       2.30603358       0.50253602       0.00000000
Si      -0.52278210       0.46904286       3.35193975       0.00000000
Si       2.63742430       1.99878789      -1.29604478       0.00000000
Si       3.56108359       0.22284394      -0.02494249       0.00000000
Si      -0.80576760       1.36724088      -3.24765672       0.00000000
Si      -3.15960744       1.91969994      -0.27457408       0.00000000
Si       0.71075713       2.90649927      -2.27317711       0.00000000
