10
Lattice="16.28999089631971 0.0 0.0 0.0 16.28999089631971 0.0 0.0 0.0 34.450931932916035" Properties=species:S:1:pos:R:3:initial_magmoms:R:1 pbc="T T T"
Si       1.23072579       1.45593504      -1.39312756       0.00000000
Si      -0.50485968       1.56835233       1.69157615       0.00000000
Si       1.04086584      -1.64025639       1.44235797       0.00000000
Si      -1.55659095      -1.18079694      -1.45813651       0.00000000
Si      -1.52953326      -1.86530274       1.93169928       0.00000000
Si      -2.03872608       0.25523172       2.87303707       0.00000000
Si       2.39884911       0.00780291      -2.83603675       0.00000000
Si       3.05263197       2.23067115       0.09095051       0.00000000
Si       1.36853919       1.45766178       3.28500155       0.00000000
Si       2.47342473      -3.00661272       0.13921629       0.00000000
