10
Lattice="16.28999089631971 0.0 0.0 0.0 16.28999089631971 0.0 0.0 0.0 34.450931932916035" Properties=species:S:1:pos:R:3:initial_magmoms:R:1 pbc="T T T"
Si       1.65582963       1.08779733      -1.18810995       0.00000000
Si      -2.07663291       1.03806396      -0.30165253       0.00000000
Si       0.00395847      -2.30671287      -0.55472922       0.00000000
Si       0.06766866      -0.87444720       2.30859269       0.00000000
Si      -2.95845948       0.47353401       1.83434090       0.00000000
Si       3.45778056       0.88454700       0.23543780       0.00000000
Si      -2.13102522      -1.65131730       2.38510825       0.00000000
Si      -3.21865965      -0.33669801      -1.82483243       0.00000000
Si      -1.87478352      -3.20789196       0.57636441       0.00000000
Si       1.43633817       3.39882705      -0.75085848       0.00000000
