10
Lattice="16.28999089631971 0.0 0.0 0.0 16.28999089631971 0.0 0.0 0.0 34.450931932916035" Properties=species:S:1:pos:R:3:initial_magmoms:R:1 pbc="T T T"
Si       2.19869388       0.77687010      -0.07651556       0.00000000
Si      -0.82743426       2.12485131      -0.55076736       0.00000000
Si       0.25624170      -1.55657466      -1.80874384       0.00000000
Si       1.09068066       0.72863541       2.23379967       0.00000000
Si      -0.76097106       2.61158022       2.34256133       0.00000000
Si       2.13102522       1.65131730      -2.38510825       0.00000000
Si       2.13498369      -0.65539557      -2.93983747       0.00000000
Si       0.22587714      -1.15953849       3.55114690       0.00000000
Si       0.05439231       2.68938126      -2.68676078       0.00000000
Si      -1.38681657      -0.95793345      -3.42735288       0.00000000
