10
Lattice="16.28999089631971 0.0 0.0 0.0 16.28999089631971 0.0 0.0 0.0 34.450931932916035" Properties=species:S:1:pos:R:3:initial_magmoms:R:1 pbc="T T T"
Si       1.77102111      -0.88410717       1.28697079       0.00000000
Si       1.41570363       0.48537684      -1.86968757       0.00000000
Si      -1.14411984       1.71030339       1.24112567       0.00000000
Si      -1.74501968      -1.55018898      -0.66173387       0.00000000
Si       0.13466128      -2.01277448       2.55988279       0.00000000
Si      -2.65703162       2.39422275      -0.36135603       0.00000000
Si       0.43315599       2.53599462      -2.52301541       0.00000000
Si      -1.08821435      -3.31250585       1.01285796       0.00000000
Si       1.21909962      -1.45370331      -3.17896152       0.00000000
Si      -2.65287767       0.55746009       2.55482195       0.00000000
