10
Lattice="16.28999089631971 0.0 0.0 0.0 16.28999089631971 0.0 0.0 0.0 34.450931932916035" Properties=species:S:1:pos:R:3:initial_magmoms:R:1 pbc="T T T"
Si       1.39033521      -1.36223496      -1.31090003       0.00000000
Si       1.37205783       1.34219826       1.36276939       0.00000000
Si      -1.34400645      -1.37093382       1.36807483       0.00000000
Si      -1.38442194       1.39804038      -1.38321258       0.00000000
Si      -2.61470790      -0.16286742      -2.62194028       0.00000000
Si      -2.70438435      -2.70793557       0.03227710       0.00000000
Si      -2.69783577      -0.01296684       2.72265178       0.00000000
Si       0.01369989       2.70171279       2.72172161       0.00000000
Si       2.72784195       2.71243161      -0.01187869       0.00000000
Si       0.01449810      -2.72763018       2.72203166       0.00000000
