10
Lattice="16.28999089631971 0.0 0.0 0.0 16.28999089631971 0.0 0.0 0.0 34.450931932916035" Properties=species:S:1:pos:R:3:initial_magmoms:R:1 pbc="T T T"
Si      -1.48303183       1.20531339      -1.32881797       0.00000000
Si      -1.34833145      -1.34557029       1.35330571       0.00000000
Si       1.36479249       1.36958175       1.34676003       0.00000000
Si       1.39448916      -1.25986860      -1.42150137       0.00000000
Si       0.32576742       2.09665332      -2.48558962       0.00000000
Si       2.28462363       0.61151031      -2.53848561       0.00000000
Si      -2.59931043      -0.32861817      -2.69225454       0.00000000
Si      -2.69475655       2.71423980       0.00199816       0.00000000
Si       0.00421911      -2.70174537       2.70819272       0.00000000
Si       2.72842839      -2.68436394      -0.01863796       0.00000000
