10
Lattice="16.28999089631971 0.0 0.0 0.0 16.28999089631971 0.0 0.0 0.0 34.450931932916035" Properties=species:S:1:pos:R:3:initial_magmoms:R:1 pbc="T T T"
Si      -1.39764942       0.52892001      -1.83537442       0.00000000
Si      -0.69475221       1.60979409       1.59817963       0.00000000
Si       2.35124973       0.31630293      -0.04592312       0.00000000
Si       0.09296703      -2.20641534       0.88507939       0.00000000
Si       1.04057262       1.71318672       3.15798089       0.00000000
Si      -2.25148977       2.70143586      -1.31502726       0.00000000
Si      -0.38076246      -1.98317718       3.21630635       0.00000000
Si       2.34631386      -2.81911482       0.99115387       0.00000000
Si       2.83695237       2.57013846       0.03417534       0.00000000
Si       3.02528106       0.43104969      -2.30873049       0.00000000
