10
Lattice="16.28999089631971 0.0 0.0 0.0 16.28999089631971 0.0 0.0 0.0 34.450931932916035" Properties=species:S:1:pos:R:3:initial_magmoms:R:1 pbc="T T T"
Si      -0.24340518       2.28532410      -0.25069957       0.00000000
Si      -0.86959278       0.29313855       2.15983348       0.00000000
Si       2.32215579      -0.43189677       0.14572752       0.00000000
Si      -1.18974015      -0.92577699      -1.86441658       0.00000000
Si       0.89966412      -0.54081171       3.36038058       0.00000000
Si       2.74494645      -0.93915108      -2.15845544       0.00000000
Si      -3.36966795      -0.13364316      -1.35933118       0.00000000
Si      -2.60148042      -1.33110477       2.28168650       0.00000000
Si       1.70992872       3.22067961       0.87147126       0.00000000
Si       3.28455270       1.45745001       1.19944432       0.00000000
