10
Lattice="16.28999089631971 0.0 0.0 0.0 16.28999089631971 0.0 0.0 0.0 34.450931932916035" Properties=species:S:1:pos:R:3:initial_magmoms:R:1 pbc="T T T"
Si       1.76925690      -0.83395026       1.20054710       0.00000000
Si       0.86959278      -0.29313855      -2.15983348       0.00000000
Si      -1.73188764      -1.62424332       0.12185301       0.00000000
Si      -1.04560623       1.97392446       0.83515996       0.00000000
Si       0.62618760       1.99218555      -2.41053305       0.00000000
Si       0.31705227      -2.01323223       2.57766982       0.00000000
Si      -1.37979558       2.91550275      -1.41204114       0.00000000
Si      -2.45770488       0.74704311       2.50535727       0.00000000
Si       3.19174857      -0.72503532      -2.01410596       0.00000000
Si      -0.71379522      -3.67085376       1.16023913       0.00000000
