10
Lattice="16.28999089631971 0.0 0.0 0.0 16.28999089631971 0.0 0.0 0.0 34.450931932916035" Properties=species:S:1:pos:R:3:initial_magmoms:R:1 pbc="T T T"
Si       1.68651999       0.82562607      -1.48142535       0.00000000
Si      -0.93752208      -1.85259654      -1.33514661       0.00000000
Si      -1.77934041       1.77198289       0.26479001       0.00000000
Si       2.11553343       0.89837837       1.50085569       0.00000000
Si       0.48071790       2.64118634       1.84929261       0.00000000
Si       0.42300243       2.24088402      -2.82146400       0.00000000
Si      -2.28319011      -0.50191119      -2.79531573       0.00000000
Si      -3.48104268       0.98433565      -1.30207370       0.00000000
Si      -0.92237238       3.51180539      -1.29752617       0.00000000
Si      -0.33777315      -2.09860812       3.27621656       0.00000000
