10
Lattice="16.28999089631971 0.0 0.0 0.0 16.28999089631971 0.0 0.0 0.0 34.450931932916035" Properties=species:S:1:pos:R:3:initial_magmoms:R:1 pbc="T T T"
Si      -1.27435800       1.28060577      -1.45105684       0.00000000
Si      -1.37287992      -1.34185617       1.34586430       0.00000000
Si       1.34338214       1.37230218       1.34658777       0.00000000
Si       1.21172473      -1.50892641      -1.33081613       0.00000000
Si      -0.01306058      -2.70080055       2.70629792       0.00000000
Si       2.70262462       0.01580130       2.70581560       0.00000000
Si       2.69475655      -2.71423980      -0.00199816       0.00000000
Si      -2.72638344       2.70659979      -0.02086694       0.00000000
Si      -0.01463268       2.72974788       2.70585005       0.00000000
Si       2.69816116       2.73839787      -0.02707845       0.00000000
