10
Lattice="16.28999089631971 0.0 0.0 0.0 16.28999089631971 0.0 0.0 0.0 34.450931932916035" Properties=species:S:1:pos:R:3:initial_magmoms:R:1 pbc="T T T"
Si      -1.58242689       1.68838261       0.20866941       0.00000000
Si       0.03929148      -1.34490240       1.90110684       0.00000000
Si       2.23430382       0.93877641       0.26168943       0.00000000
Si      -0.72589869      -1.46598597      -1.84095548       0.00000000
Si       1.99492227      -2.17087056       0.89961769       0.00000000
Si      -3.15120276      -0.24343776       0.16105820       0.00000000
Si       0.79799823       0.45028818       3.35865768       0.00000000
Si      -0.21646152       3.45827645      -0.86375425       0.00000000
Si       3.07312479       0.31286574      -1.82565926       0.00000000
Si       1.59397650       3.15238283       0.65725525       0.00000000
