10
Lattice="16.28999089631971 0.0 0.0 0.0 16.28999089631971 0.0 0.0 0.0 34.450931932916035" Properties=species:S:1:pos:R:3:initial_magmoms:R:1 pbc="T T T"
Si      -1.24926381      -0.83206062       1.79544577       0.00000000
Si       1.90560420       1.01371041       1.02405452       0.00000000
Si      -1.65688848       1.01862999      -1.46034137       0.00000000
Si       1.24217766      -0.94424985      -1.87444180       0.00000000
Si       0.70407009       0.10329489       2.91761660       0.00000000
Si       1.10452716       3.17833605       0.65959791       0.00000000
Si      -0.01643661       2.26921396      -2.64269801       0.00000000
Si      -2.50230690      -1.06344378      -2.54981825       0.00000000
Si       0.59942313      -3.17143494      -1.94854580       0.00000000
Si      -1.00585863      -3.11738472       2.04614534       0.00000000
