10
Lattice="16.28999089631971 0.0 0.0 0.0 16.28999089631971 0.0 0.0 0.0 34.450931932916035" Properties=species:S:1:pos:R:3:initial_magmoms:R:1 pbc="T T T"
Si      -0.74204208       2.18988492       0.54528966       0.00000000
Si       1.57462398      -1.76322960       0.32797306       0.00000000
Si       1.20153411       0.91041552      -1.89356208       0.00000000
Si      -1.95333390      -0.93535551      -1.12217083       0.00000000
Si      -0.70407009      -0.10329489      -2.91761660       0.00000000
Si      -1.70992872      -3.22067961      -0.87147126       0.00000000
Si       2.32867179      -1.51257537       2.52093909       0.00000000
Si       0.61222707      -3.65257638      -0.72574374       0.00000000
Si       0.40045707       3.07504116      -2.25801869       0.00000000
Si      -1.79129727       3.23168255      -1.25356676       0.00000000
