10
Lattice="16.28999089631971 0.0 0.0 0.0 16.28999089631971 0.0 0.0 0.0 34.450931932916035" Properties=species:S:1:pos:R:3:initial_magmoms:R:1 pbc="T T T"
Si       1.50875783       1.15284330      -1.31369628       0.00000000
Si       1.40307399      -1.22960178       1.37675647       0.00000000
Si      -1.11283506      -1.27135305      -1.62009874       0.00000000
Si      -1.31997870       1.48765167       1.34895800       0.00000000
Si      -0.00415395       1.83676266      -2.91617797       0.00000000
Si      -2.61021186      -2.49256548      -0.02552815       0.00000000
Si       2.65287767      -0.55746009      -2.55482195       0.00000000
Si       0.04326624      -2.57812219       2.72772985       0.00000000
Si       2.62503643       2.68677486       0.04974028       0.00000000
Si       2.78753895      -2.57023457       0.00506084       0.00000000
