10
Lattice="16.28999089631971 0.0 0.0 0.0 16.28999089631971 0.0 0.0 0.0 34.450931932916035" Properties=species:S:1:pos:R:3:initial_magmoms:R:1 pbc="T T T"
Si      -1.44317997      -1.10561859      -1.47574094       0.00000000
Si      -1.43255889       1.36635633       1.30314168       0.00000000
Si       1.23877305       1.55875752      -1.41121431       0.00000000
Si      -0.04008969      -1.97623764       1.67107784       0.00000000
Si      -2.30014800      -2.84544109       0.08657524       0.00000000
Si      -0.09780516      -2.37653995      -2.99967877       0.00000000
Si      -2.47342473       3.00661272      -0.13921629       0.00000000
Si       2.63498895       0.31278429      -2.95737300       0.00000000
Si      -0.38867940       2.15718696       3.40564878       0.00000000
Si       2.21995233       3.39374457      -0.05432915       0.00000000
