10
Lattice="16.28999089631971 0.0 0.0 0.0 16.28999089631971 0.0 0.0 0.0 34.450931932916035" Properties=species:S:1:pos:R:3:initial_magmoms:R:1 pbc="T T T"
Si       1.03113633      -2.01349287       0.58625184       0.00000000
Si       0.63030897      -0.17650215      -2.26315189       0.00000000
Si       0.38226114       1.99782189       1.19183066       0.00000000
Si      -2.19789567      -0.36041625       0.80615226       0.00000000
Si      -0.02441871      -3.24225734      -1.23568672       0.00000000
Si      -1.60568901      -0.56283579      -3.04026199       0.00000000
Si       0.50832945      -1.86948927       3.14478618       0.00000000
Si       2.68650512       2.21669433       1.28350464       0.00000000
Si      -2.22174423       0.55464192       3.00556988       0.00000000
Si      -2.24461539      -2.56173282      -1.91598965       0.00000000
