10
Lattice="16.28999089631971 0.0 0.0 0.0 16.28999089631971 0.0 0.0 0.0 34.450931932916035" Properties=species:S:1:pos:R:3:initial_magmoms:R:1 pbc="T T T"
Si       1.11283506       1.27135305       1.62009874       0.00000000
Si      -0.70938063       1.58783517      -1.73567337       0.00000000
Si      -1.49737680      -1.22121243       1.59457058       0.00000000
Si       2.02069305      -0.83629602      -1.59645708       0.00000000
Si       1.10868111       3.10811571      -1.29607923       0.00000000
Si       2.62159289       2.42419635       0.30640246       0.00000000
Si       2.67749838      -2.59861289       0.07813476       0.00000000
Si       2.51590905       0.04175127       2.99685521       0.00000000
Si      -2.73658968      -2.31096782      -1.64696217       0.00000000
Si       3.76571273       0.71389296      -0.93472321       0.00000000
