10
Lattice="16.28999089631971 0.0 0.0 0.0 16.28999089631971 0.0 0.0 0.0 34.450931932916035" Properties=species:S:1:pos:R:3:initial_magmoms:R:1 pbc="T T T"
Si      -0.90855846      -2.09858857      -0.51517952       0.00000000
Si       2.19789567       0.36041625      -0.80615226       0.00000000
Si      -1.70637750       1.25099055      -1.09095827       0.00000000
Si      -0.02384856       0.91505817       2.19941763       0.00000000
Si      -0.04671972      -2.20131657      -2.72214191       0.00000000
Si       2.58015681       2.35823814       0.38567840       0.00000000
Si      -3.58511949       0.34981146       0.04013536       0.00000000
Si      -1.64266731       2.68325622       1.77236363       0.00000000
Si       3.22903200      -1.65307662      -0.21990042       0.00000000
Si      -3.10031280      -1.94194719       0.48927241       0.00000000
