10
Lattice="16.28999089631971 0.0 0.0 0.0 16.28999089631971 0.0 0.0 0.0 34.450931932916035" Properties=species:S:1:pos:R:3:initial_magmoms:R:1 pbc="T T T"
Si       1.37287992       1.34185617      -1.34586430       0.00000000
Si      -1.35858600       1.35785295       1.36015800       0.00000000
Si       1.35981935      -1.35894438       1.36043361       0.00000000
Si      -1.36041048      -1.36619343      -1.37746272       0.00000000
Si       2.58460465      -0.16707024      -2.67668043       0.00000000
Si       0.09852192       2.62246194      -2.79692114       0.00000000
Si      -2.71370223       2.71292031       0.00599447       0.00000000
Si      -2.71661814      -2.71336014       0.00461643       0.00000000
Si       2.71626206       2.71415835       0.00072347       0.00000000
Si      -2.71340901      -0.00070047       2.71793889       0.00000000
