10
Lattice="16.28999089631971 0.0 0.0 0.0 16.28999089631971 0.0 0.0 0.0 34.450931932916035" Properties=species:S:1:pos:R:3:initial_magmoms:R:1 pbc="T T T"
Si      -1.35875386      -1.35671265      -1.35636840       0.00000000
Si       1.35665726       1.35874890      -1.35643730       0.00000000
Si       1.35719483      -1.35659862       1.35877997       0.00000000
Si      -1.35666803       1.35853713       1.36573906       0.00000000
Si       2.71361426      -2.71126036       0.00065457       0.00000000
Si       2.71358168       0.00099369      -2.71404593       0.00000000
Si      -0.00133415      -2.71402966      -2.71377033       0.00000000
Si      -0.00119243       2.71588509      -2.71428709       0.00000000
Si      -2.71627346       0.00104256      -2.71425264       0.00000000
Si      -2.71624088      -2.71514552      -0.00037896       0.00000000
