10
Lattice="16.28999089631971 0.0 0.0 0.0 16.28999089631971 0.0 0.0 0.0 34.450931932916035" Properties=species:S:1:pos:R:3:initial_magmoms:R:1 pbc="T T T"
Si       1.34745341       1.36203948      -1.40043117       0.00000000
Si      -1.36523657      -1.35285192      -1.39609035       0.00000000
Si      -1.39653911       1.37901366       1.44604423       0.00000000
Si       1.46451335      -1.36992384       1.61127099       0.00000000
Si       2.70229271      -2.69314425      -0.03221164       0.00000000
Si       2.69305628       2.71063971      -0.01694987       0.00000000
Si      -2.72047628      -2.71114470      -0.00537435       0.00000000
Si      -2.72476055       2.71873584      -0.03000678       0.00000000
Si       2.70641408       0.00571779      -2.76083033       0.00000000
Si      -0.00856854      -2.71138905      -2.76182940       0.00000000
