10
Lattice="16.28999089631971 0.0 0.0 0.0 16.28999089631971 0.0 0.0 0.0 34.450931932916035" Properties=species:S:1:pos:R:3:initial_magmoms:R:1 pbc="T T T"
Si      -1.34192133      -1.35314514      -1.36631783       0.00000000
Si       1.35511623      -1.35506736       1.35416354       0.00000000
Si      -1.35552348       1.35760860       1.35536932       0.00000000
Si       1.36019871       1.33553565      -1.37272571       0.00000000
Si      -2.69658144       0.01024641      -2.67873371       0.00000000
Si       0.00029322      -2.71362078       2.71194443       0.00000000
Si       2.71464705       0.00094482       2.71180662       0.00000000
Si      -2.71463076       0.00127062       2.71194443       0.00000000
Si       2.71370223      -2.71292031      -0.00599447       0.00000000
Si       2.71516833       2.71178001      -0.00861274       0.00000000
