10
Lattice="16.28999089631971 0.0 0.0 0.0 16.28999089631971 0.0 0.0 0.0 34.450931932916035" Properties=species:S:1:pos:R:3:initial_magmoms:R:1 pbc="T T T"
Si       1.27435800      -1.28060577       1.45105684       0.00000000
Si       0.93802707       1.89615600      -1.08865695       0.00000000
Si      -1.06549632      -1.56831975      -1.60533995       0.00000000
Si      -1.45202544       1.42599402       1.43018990       0.00000000
Si       1.12384710       0.81583578      -3.20951404       0.00000000
Si       2.48608273      -2.78953218       0.12024071       0.00000000
Si      -2.77819434      -2.57663817      -0.05159719       0.00000000
Si       2.61774014       0.09169641       2.79764461       0.00000000
Si      -0.09852192      -2.62246194       2.79692114       0.00000000
Si      -0.91766457       3.52890270      -1.22091105       0.00000000
