10
Lattice="16.28999089631971 0.0 0.0 0.0 16.28999089631971 0.0 0.0 0.0 34.450931932916035" Properties=species:S:1:pos:R:3:initial_magmoms:R:1 pbc="T T T"
Si       1.35628911      -1.35703845      -1.35774644       0.00000000
Si       1.35591444       1.35917244       1.35681626       0.00000000
Si      -1.35808101       1.35772263      -1.35764308       0.00000000
Si      -1.35847197      -1.35799956       1.35795314       0.00000000
Si      -2.71388142      -0.00037467      -2.71418374       0.00000000
Si      -0.00324171      -2.71305063      -2.71538952       0.00000000
Si       2.71423909      -2.71423980      -0.00027561       0.00000000
Si       0.00244350       2.71303434       2.71611299       0.00000000
Si       2.71359153       0.00070047      -2.71556178       0.00000000
Si       2.71448655       2.71539639      -0.00031006       0.00000000
