10
Lattice="16.28999089631971 0.0 0.0 0.0 16.28999089631971 0.0 0.0 0.0 34.450931932916035" Properties=species:S:1:pos:R:3:initial_magmoms:R:1 pbc="T T T"
Si       0.47495613      -2.29229622      -0.02525255       0.00000000
Si      -2.16311882       0.89446761      -0.40669348       0.00000000
Si       0.96727251       1.06505649       2.07980392       0.00000000
Si      -0.93207145       3.17891205      -0.55290332       0.00000000
Si       0.27553395      -2.55982689      -2.51722765       0.00000000
Si      -0.56916446       0.38701782       3.79659817       0.00000000
Si       3.26826759       0.50831316       2.06781499       0.00000000
Si      -3.63467597       0.18137286       1.53616791       0.00000000
Si       2.80787961      -2.77249284       0.34295922       0.00000000
Si       3.81595368       1.24253604      -0.22182967       0.00000000
