10
Lattice="16.28999089631971 0.0 0.0 0.0 16.28999089631971 0.0 0.0 0.0 34.450931932916035" Properties=species:S:1:pos:R:3:initial_magmoms:R:1 pbc="T T T"
Si       2.30099508      -0.55674333      -0.01198893       0.00000000
Si       0.39967515       2.34294183       0.07944389       0.00000000
Si      -1.53643696      -0.67803867       1.71679425       0.00000000
Si      -0.96727251      -1.06505649      -2.07980392       0.00000000
Si      -2.01439859       2.57026878      -0.09625596       0.00000000
Si      -0.03868875      -2.05617267       2.84726776       0.00000000
Si       2.84868117       0.17747955      -2.30163360       0.00000000
Si      -1.63394401       1.18395720       3.13941183       0.00000000
Si       2.52081234      -2.90851434       0.30709578       0.00000000
Si      -1.89934395       2.11385556      -2.63270724       0.00000000
