10
Lattice="16.28999089631971 0.0 0.0 0.0 16.28999089631971 0.0 0.0 0.0 34.450931932916035" Properties=species:S:1:pos:R:3:initial_magmoms:R:1 pbc="T T T"
Si      -1.36254447      -1.35032697       1.37765220       0.00000000
Si       1.35395964       1.36367404       1.37827231       0.00000000
Si      -1.29951846       1.44923075      -1.37498569       0.00000000
Si       1.44563976      -1.33651305      -1.43434124       0.00000000
Si      -2.72165175      -2.69651628       0.00324528       0.00000000
Si       2.72698153      -2.69477325       0.01916162       0.00000000
Si       2.71376739       2.71219445       0.02729893       0.00000000
Si      -0.00434943      -2.70700704       2.73729344       0.00000000
Si       2.71197333       0.00722937       2.73877483       0.00000000
Si      -2.71969695       0.00665229       2.73732789       0.00000000
