10
Lattice="16.28999089631971 0.0 0.0 0.0 16.28999089631971 0.0 0.0 0.0 34.450931932916035" Properties=species:S:1:pos:R:3:initial_magmoms:R:1 pbc="T T T"
Si       0.08229708       2.03761577      -1.06956423       0.00000000
Si      -0.48436686      -1.62667053      -1.61023746       0.00000000
Si       1.53150665      -0.83166966       1.68551279       0.00000000
Si      -2.19866130       0.65624265       0.82155183       0.00000000
Si       0.13004307      -2.64365523       1.96222283       0.00000000
Si      -0.21258450      -3.49202214      -0.15695853       0.00000000
Si       1.13785212       3.26638025       0.75237432       0.00000000
Si      -2.86208784      -1.30171761      -2.07694449       0.00000000
Si      -2.13789960       2.71814030      -1.74986716       0.00000000
Si       3.61500254      -1.61815086       0.87353832       0.00000000
