10
Lattice="16.28999089631971 0.0 0.0 0.0 16.28999089631971 0.0 0.0 0.0 34.450931932916035" Properties=species:S:1:pos:R:3:initial_magmoms:R:1 pbc="T T T"
Si       0.48436686       1.62667053       1.61023746       0.00000000
Si       0.27178236      -1.86535161       1.45327892       0.00000000
Si       0.94400550      -0.12963582      -2.20561880       0.00000000
Si      -2.37772098       0.32495292      -0.46670704       0.00000000
Si      -1.88081082      -2.78733303       1.29542467       0.00000000
Si      -3.02047551      -1.90223217      -0.54081103       0.00000000
Si      -0.14025690      -2.13713397      -3.05914111       0.00000000
Si       0.56666394       3.66428630       0.54067323       0.00000000
Si      -1.71429444       2.28291318       2.43178929       0.00000000
Si       0.61440993      -1.01698470       3.57246029       0.00000000
