10
Lattice="16.28999089631971 0.0 0.0 0.0 16.28999089631971 0.0 0.0 0.0 34.450931932916035" Properties=species:S:1:pos:R:3:initial_magmoms:R:1 pbc="T T T"
Si       1.35531129      -1.35796359      -1.35533487       0.00000000
Si       1.35547582       1.35742207       1.35647175       0.00000000
Si      -1.35866529      -1.35723054       1.35650620       0.00000000
Si      -1.35801369       1.35644467      -1.36050251       0.00000000
Si       0.00179406       2.70496508      -2.71147589       0.00000000
Si       0.01500821      -2.70200262      -2.71961321       0.00000000
Si       2.71100744       2.71428296      -0.00148139       0.00000000
Si       2.71206629      -2.71368255      -0.00117133       0.00000000
Si       2.70623447      -0.00273702      -2.72058817       0.00000000
Si       2.71341836       0.00031250       2.71342582       0.00000000
