10
Lattice="16.28999089631971 0.0 0.0 0.0 16.28999089631971 0.0 0.0 0.0 34.450931932916035" Properties=species:S:1:pos:R:3:initial_magmoms:R:1 pbc="T T T"
Si      -1.34338214      -1.37230218      -1.34658777       0.00000000
Si      -1.35801482       1.35744570       1.35926228       0.00000000
Si       1.35924249      -1.35650088       1.35922783       0.00000000
Si       1.35477903       1.36609569      -1.37366622       0.00000000
Si       2.68671459      -0.07626978      -2.70609121       0.00000000
Si      -2.61774014      -0.09169641      -2.79764461       0.00000000
Si      -2.71479596       2.71054197      -0.00334174       0.00000000
Si      -2.71626206      -2.71415835      -0.00072347       0.00000000
Si       2.71735608       2.71399545       0.00024116       0.00000000
Si       0.00054734       2.71511946       2.71704317       0.00000000
