10
Lattice="16.28999089631971 0.0 0.0 0.0 16.28999089631971 0.0 0.0 0.0 34.450931932916035" Properties=species:S:1:pos:R:3:initial_magmoms:R:1 pbc="T T T"
Si       1.35693908       1.35739683      -1.35664401       0.00000000
Si      -1.35810682      -1.35764118      -1.35705742       0.00000000
Si       1.35667844      -1.35783666       1.36112263       0.00000000
Si      -1.35968787       1.35402480       1.36281073       0.00000000
Si       2.71484090       0.00043983      -2.71404593       0.00000000
Si      -2.71592649      -2.71344159      -0.00055122       0.00000000
Si      -0.00019222       2.71497285      -2.71456270       0.00000000
Si       2.71563911      -2.71415835       0.00072347       0.00000000
Si       2.71420559       2.71562445      -0.00048231       0.00000000
Si      -0.00053594      -2.71538010      -2.71456270       0.00000000
