10
Lattice="16.28999089631971 0.0 0.0 0.0 16.28999089631971 0.0 0.0 0.0 34.450931932916035" Properties=species:S:1:pos:R:3:initial_magmoms:R:1 pbc="T T T"
Si      -0.21402616      -0.64887957       2.27217803       0.00000000
Si      -0.87588465      -1.83355353      -1.23630683       0.00000000
Si       1.91637515       0.90145602      -1.17105673       0.00000000
Si      -1.84548174       1.84627602       0.10407632       0.00000000
Si      -2.20410609      -0.49383135      -2.71235784       0.00000000
Si       0.53543438       2.22449724      -2.70501979       0.00000000
Si      -0.43320486       1.54368927       3.29333868       0.00000000
Si      -3.50740383       0.81691092      -1.19916871       0.00000000
Si      -0.78642076       3.55244175      -1.24343818       0.00000000
Si      -2.61485844      -2.84275161       0.21531844       0.00000000
