10
Lattice="16.28999089631971 0.0 0.0 0.0 16.28999089631971 0.0 0.0 0.0 34.450931932916035" Properties=species:S:1:pos:R:3:initial_magmoms:R:1 pbc="T T T"
Si      -1.73565063       1.53213966       0.55700298       0.00000000
Si      -0.62289702      -1.75868469       1.49014144       0.00000000
Si       2.16099882       0.85937895       0.72736293       0.00000000
Si      -0.80089785      -0.82055988      -2.27031768       0.00000000
Si      -3.34466932       0.05271444      -0.22568818       0.00000000
Si       3.22761915       0.03681540      -1.17477744       0.00000000
Si      -2.83451701      -1.97954451       0.78965025       0.00000000
Si       2.65812075      -2.31767604      -1.11662423       0.00000000
Si       2.89150758      -0.85843413       2.36946752       0.00000000
Si       2.45449575      -2.90318751       1.15810318       0.00000000
