10
Lattice="16.28999089631971 0.0 0.0 0.0 16.28999089631971 0.0 0.0 0.0 34.450931932916035" Properties=species:S:1:pos:R:3:initial_magmoms:R:1 pbc="T T T"
Si      -1.60901869      -1.47942522      -0.78269116       0.00000000
Si      -0.49215348       1.68326199      -1.55070621       0.00000000
Si       1.73565063      -1.53213966      -0.55700298       0.00000000
Si      -0.31671018       0.70949466       2.27407284       0.00000000
Si       1.11275361      -3.29082435       0.93313846       0.00000000
Si      -2.65897502       2.34038430      -0.92948666       0.00000000
Si      -1.09886639      -3.51168417       0.23264727       0.00000000
Si       0.93475278      -2.35269954      -2.82732066       0.00000000
Si       0.92740599       2.76174144       2.55632948       0.00000000
Si       0.76756851       3.59187984      -1.31726657       0.00000000
