10
Lattice="16.28999089631971 0.0 0.0 0.0 16.28999089631971 0.0 0.0 0.0 34.450931932916035" Properties=species:S:1:pos:R:3:initial_magmoms:R:1 pbc="T T T"
Si      -1.63388604       0.32606064       1.61168440       0.00000000
Si      -0.51015230       2.03225895      -1.01533843       0.00000000
Si       2.21161999       0.22085982       0.70049119       0.00000000
Si       0.09750705      -1.86199587      -1.42261758       0.00000000
Si      -3.26073576       0.08125452      -0.75816208       0.00000000
Si      -0.38045458       1.38631158      -3.23566779       0.00000000
Si       2.83451701       1.97954451      -0.78965025       0.00000000
Si       1.59525527      -3.24012987      -0.29214407       0.00000000
Si       1.09886639       3.51168417      -0.23264727       0.00000000
Si      -2.77503312       2.33509005      -0.67806362       0.00000000
