10
Lattice="16.28999089631971 0.0 0.0 0.0 16.28999089631971 0.0 0.0 0.0 34.450931932916035" Properties=species:S:1:pos:R:3:initial_magmoms:R:1 pbc="T T T"
Si      -0.16402401      -0.31483683      -2.28299563       0.00000000
Si       2.23322868       0.31162770       0.73807718       0.00000000
Si      -1.28024739       1.91029572       0.59035150       0.00000000
Si      -1.53261207      -1.68998976       0.82572040       0.00000000
Si      -2.94030753       0.18907803       0.71313469       0.00000000
Si       0.83647521      -2.44975536      -2.14260801       0.00000000
Si      -0.60613461      -1.93073967       2.92688391       0.00000000
Si      -0.25576929       2.36024181       2.65658175       0.00000000
Si       2.02895208       2.33681679       1.90413852       0.00000000
Si       3.35038059       0.58541373      -1.40366956       0.00000000
