10
Lattice="16.28999089631971 0.0 0.0 0.0 16.28999089631971 0.0 0.0 0.0 34.450931932916035" Properties=species:S:1:pos:R:3:initial_magmoms:R:1 pbc="T T T"
Si      -0.17247852       0.20733912       2.31920358       0.00000000
Si       0.68831766       2.02284333      -1.03366634       0.00000000
Si      -2.28231143       0.03122793      -0.68498826       0.00000000
Si       0.33795234      -2.26813815      -0.76336418       0.00000000
Si       0.39425058      -1.99462905       2.69482230       0.00000000
Si      -0.33616044       1.57289724      -3.09989659       0.00000000
Si      -0.58852512      -2.02738824      -2.86452769       0.00000000
Si      -1.99622058      -0.14832045      -2.97711340       0.00000000
Si      -0.64290114      -3.37662378       1.05240766       0.00000000
Si       1.78338033       1.40320431       2.96643360       0.00000000
