10
Lattice="16.28999089631971 0.0 0.0 0.0 16.28999089631971 0.0 0.0 0.0 34.450931932916035" Properties=species:S:1:pos:R:3:initial_magmoms:R:1 pbc="T T T"
Si       1.02447810       0.44994609       2.06623025       0.00000000
Si      -0.31324041       1.77518646      -1.53241276       0.00000000
Si       1.28024739      -1.91029572      -0.59035150       0.00000000
Si      -1.66006014      -1.72121769       0.12278319       0.00000000
Si      -1.94615099      -1.54166931       2.41490833       0.00000000
Si       0.33616044      -1.57289724       3.09989659       0.00000000
Si      -2.64032297       2.08759608      -1.11317913       0.00000000
Si       3.30919947       0.42652107       1.31378702       0.00000000
Si      -0.25236468      -3.60028548       0.23536890       0.00000000
Si       1.11622338      -2.22513255      -2.87334713       0.00000000
