10
Lattice="16.28999089631971 0.0 0.0 0.0 16.28999089631971 0.0 0.0 0.0 34.450931932916035" Properties=species:S:1:pos:R:3:initial_magmoms:R:1 pbc="T T T"
Si      -0.28609084       0.17954838       2.29212514       0.00000000
Si       1.40769546      -1.87906779       0.11258571       0.00000000
Si      -1.06922251      -0.39871404      -2.08493711       0.00000000
Si       1.66006014       1.72121769      -0.12278319       0.00000000
Si       2.94030753      -0.18907803      -0.71313469       0.00000000
Si      -2.06452522       1.80131562      -2.08948464       0.00000000
Si      -1.87429060      -2.53444707      -1.56893077       0.00000000
Si       1.99622058       0.14832045       2.97711340       0.00000000
Si      -1.65248596       2.07309798       2.42293540       0.00000000
Si      -0.00570150      -3.64744503      -0.64633430       0.00000000
