10
Lattice="16.28999089631971 0.0 0.0 0.0 16.28999089631971 0.0 0.0 0.0 34.450931932916035" Properties=species:S:1:pos:R:3:initial_magmoms:R:1 pbc="T T T"
Si      -1.35255056       1.35617508      -1.35488701       0.00000000
Si      -1.35553163      -1.35686089       1.35795314       0.00000000
Si       1.35938421       1.35816246       1.35767754       0.00000000
Si       1.35782037      -1.35723230      -1.36029581       0.00000000
Si      -0.00421911       2.70174537      -2.70819272       0.00000000
Si      -2.70921338      -0.00931788      -2.70999450       0.00000000
Si      -2.71100744      -2.71428296       0.00148139       0.00000000
Si      -2.71203624       2.71518462       0.00010335       0.00000000
Si      -2.71295134       0.00045612       2.71535507       0.00000000
Si       0.00241092      -2.71397046       2.71490721       0.00000000
