10
Lattice="10.86 0.0 0.0 0.0 10.86 0.0 0.0 0.0 10.86" Properties=species:S:1:pos:R:3:initial_magmoms:R:1 pbc="T T T"
Si       1.44895206       0.99228906       1.55119896       0.00000000
Si      -1.47170376       1.15054098      -1.48530048       0.00000000
Si       1.44895206      -1.72271094      -1.16380104       0.00000000
Si      -1.26604794      -1.72271094       1.55119896       0.00000000
Si       0.11463816       2.49252204      -2.45987688       0.00000000
Si      -0.20820792       2.34696546       2.72955240       0.00000000
Si       2.80645206       2.34978906       0.19369896       0.00000000
Si      -2.73730644      -0.20856630       2.51817336       0.00000000
Si       2.80645206      -0.36521094      -2.52130104       0.00000000
Si      -3.21637362      -0.18965904      -2.31462438       0.00000000
