10
Lattice="10.86 0.0 0.0 0.0 10.86 0.0 0.0 0.0 10.86" Properties=species:S:1:pos:R:3:initial_magmoms:R:1 pbc="T T T"
Si      -1.35750000      -1.35750000       1.35750000       0.00000000
Si       1.35750000       1.35750000       1.35750000       0.00000000
Si       1.35750000      -1.35750000      -1.35750000       0.00000000
Si      -1.35750000       1.35750000      -1.35750000       0.00000000
Si       2.44697520      -2.88082134      -0.10717734       0.00000000
Si      -2.66680332       2.68837128       0.16342128       0.00000000
Si      -2.79814416       0.24356808       2.56074456       0.00000000
Si       2.76774702      -0.10369128      -2.60373930       0.00000000
Si      -2.80817880      -0.11227068      -2.59585494       0.00000000
Si       0.00000000       2.71500000       2.71500000       0.00000000
