10
Lattice="10.86 0.0 0.0 0.0 10.86 0.0 0.0 0.0 10.86" Properties=species:S:1:pos:R:3:initial_magmoms:R:1 pbc="T T T"
Si       1.27066344       1.27262910       1.25581782       0.00000000
Si      -1.44433656      -1.44237090       1.25581782       0.00000000
Si      -1.44433656       1.27262910      -1.45918218       0.00000000
Si       2.62816344      -0.08487090       2.61331782       0.00000000
Si      -0.08683656       2.63012910       2.61331782       0.00000000
Si       2.65587816       2.61409974      -0.10046586       0.00000000
Si      -0.08683656      -2.79987090       2.61331782       0.00000000
Si      -2.80183656      -0.08487090       2.61331782       0.00000000
Si      -2.80183656       2.63012910      -0.10168218       0.00000000
Si      -0.10680810       2.73792546      -2.77248198       0.00000000
