10
Lattice="16.28999089631971 0.0 0.0 0.0 16.28999089631971 0.0 0.0 0.0 34.53561885213415" Properties=species:S:1:pos:R:3:initial_magmoms:R:1 pbc="T T T"
Si       1.34475416       1.33980689      -1.37945699       0.00000000
Si      -1.37089377      -1.37160564      -1.37627972       0.00000000
Si      -1.28501987       1.44551270       1.42856667       0.00000000
Si       1.33014203      -1.37154101       1.51642534       0.00000000
Si      -2.36072304      -0.45426620       2.44906024       0.00000000
Si      -0.54079379      -2.31017028       2.72030315       0.00000000
Si       2.67879113      -2.72507658      -0.00821948       0.00000000
Si       2.70361709       2.70332876      -0.00093246       0.00000000
Si      -0.01430099       2.70104816      -2.73726014       0.00000000
Si       2.70223244      -0.01226963      -2.73843436       0.00000000
