10
Lattice="16.28999089631971 0.0 0.0 0.0 16.28999089631971 0.0 0.0 0.0 34.53561885213415" Properties=species:S:1:pos:R:3:initial_magmoms:R:1 pbc="T T T"
Si      -1.35747828       1.35207652       1.35897736       0.00000000
Si       1.35689184       1.35596983      -1.35735419       0.00000000
Si       1.35694071      -1.35561358       1.35904643       0.00000000
Si      -1.35785295      -1.35803428      -1.35697429       0.00000000
Si       2.71565703       2.71264990       0.00034536       0.00000000
Si      -0.00076563       2.71413229      -2.71432848       0.00000000
Si       2.71438641      -0.00066463      -2.71436302       0.00000000
Si      -2.71554789      -0.00114356      -2.71398312       0.00000000
Si      -2.71653343       2.71331779       0.00117421       0.00000000
Si       2.71388142      -2.71639075      -0.00051803       0.00000000
