10
Lattice="16.28999089631971 0.0 0.0 0.0 16.28999089631971 0.0 0.0 0.0 34.53561885213415" Properties=species:S:1:pos:R:3:initial_magmoms:R:1 pbc="T T T"
Si       1.79729199       0.61118777       1.35525584       0.00000000
Si       0.57850677      -0.03185347      -2.32891076       0.00000000
Si      -0.84703113      -1.84197776       1.32027469       0.00000000
Si      -1.91832669       1.51544730       0.12674756       0.00000000
Si       1.42056945      -2.23953521      -1.89769878       0.00000000
Si       0.52227369       2.11403964       2.72319175       0.00000000
Si      -2.19040227      -0.61782845       2.77264333       0.00000000
Si      -0.84548358       3.41940621       1.19021348       0.00000000
Si      -2.26905039      -3.06218021      -0.10951251       0.00000000
Si      -3.32604333       0.59588494      -1.79775264       0.00000000
