10
Lattice="16.28999089631971 0.0 0.0 0.0 16.28999089631971 0.0 0.0 0.0 34.53561885213415" Properties=species:S:1:pos:R:3:initial_magmoms:R:1 pbc="T T T"
Si       1.35646830       1.35506736      -1.35745779       0.00000000
Si       1.35765747      -1.35816246       1.35697429       0.00000000
Si      -1.35780408       1.35757602       1.35745779       0.00000000
Si      -1.35879777      -1.35909099      -1.35721604       0.00000000
Si       0.00127062      -2.71187123      -2.71484652       0.00000000
Si       0.00076563      -2.71413229       2.71432848       0.00000000
Si      -2.71076189       0.00109143      -2.71809287       0.00000000
Si       2.71676475      -0.00263898      -2.71277438       0.00000000
Si       2.71515204      -2.71479692      -0.00003454       0.00000000
Si       2.71477737       2.71518462      -0.00037989       0.00000000
