10
Lattice="16.28999089631971 0.0 0.0 0.0 16.28999089631971 0.0 0.0 0.0 34.53561885213415" Properties=species:S:1:pos:R:3:initial_magmoms:R:1 pbc="T T T"
Si      -1.35692442      -1.35695700       1.35756140       0.00000000
Si       1.35837423       1.35764118       1.35804490       0.00000000
Si       1.35870003      -1.35632169      -1.35949540       0.00000000
Si      -1.35778779       1.35940050      -1.35977168       0.00000000
Si       2.71454931       2.71379997       0.00172678       0.00000000
Si      -2.71482624      -2.71469592       0.00093246       0.00000000
Si       0.00026064      -2.71407690       2.71574444       0.00000000
Si       2.71441899      -2.71554300       0.00072525       0.00000000
Si      -2.71445157       0.00014661       2.71570991       0.00000000
Si       0.00037467       2.71564074       2.71533001       0.00000000
