10
Lattice="16.28999089631971 0.0 0.0 0.0 16.28999089631971 0.0 0.0 0.0 34.53561885213415" Properties=species:S:1:pos:R:3:initial_magmoms:R:1 pbc="T T T"
Si       1.35689184      -1.35760860      -1.36104950       0.00000000
Si      -1.35870003       1.35646830      -1.36156753       0.00000000
Si      -1.36954917      -1.35039213       1.36046239       0.00000000
Si       1.37684709       1.35329175       1.38284149       0.00000000
Si      -2.71565703      -2.71041165      -0.00183039       0.00000000
Si       2.71350675       2.71370223      -0.00238296       0.00000000
Si       2.71420722      -2.71511946      -0.00338449       0.00000000
Si      -2.71419093       2.71529865       0.00003454       0.00000000
Si       2.71476108      -0.00032580      -2.71871451       0.00000000
Si      -0.00055386      -2.71490769      -2.71861090       0.00000000
