10
Lattice="16.28999089631971 0.0 0.0 0.0 16.28999089631971 0.0 0.0 0.0 34.53561885213415" Properties=species:S:1:pos:R:3:initial_magmoms:R:1 pbc="T T T"
Si      -1.16014122       2.17691415       0.18200281       0.00000000
Si       1.58957820      -0.41378229      -1.89455604       0.00000000
Si       0.64469304      -0.56759247       2.48970869       0.00000000
Si      -1.88644716      -1.76451651       1.47494803       0.00000000
Si      -1.29407760      -3.09122298      -0.40537932       0.00000000
Si      -1.91428677      -1.83018150      -2.34818164       0.00000000
Si       1.16851428       3.25324332       0.86553216       0.00000000
Si       0.13220964      -1.44819729      -3.57074324       0.00000000
Si       3.08591244      -2.29254057      -0.87161044       0.00000000
Si      -0.41490630      -2.54778858       3.19202543       0.00000000
