10
Lattice="16.28999089631971 0.0 0.0 0.0 16.28999089631971 0.0 0.0 0.0 34.53561885213415" Properties=species:S:1:pos:R:3:initial_magmoms:R:1 pbc="T T T"
Si      -1.77026688       1.13883390       1.01831783       0.00000000
Si       0.97780725       1.92707442      -0.89630342       0.00000000
Si       0.89029737      -1.03270455       1.92622522       0.00000000
Si      -0.11510514      -0.98666901      -2.15022337       0.00000000
Si      -0.99157230       2.36367900      -2.19767533       0.00000000
Si      -2.75968890      -0.59492709       2.17629777       0.00000000
Si      -2.94145272       1.90017963      -0.83244702       0.00000000
Si       1.30393305       3.28670298       0.93059731       0.00000000
Si      -0.72211941       2.91045285       2.10919503       0.00000000
Si       2.09974842      -0.76364262      -2.91201047       0.00000000
