10
Lattice="16.28999089631971 0.0 0.0 0.0 16.28999089631971 0.0 0.0 0.0 34.53561885213415" Properties=species:S:1:pos:R:3:initial_magmoms:R:1 pbc="T T T"
Si       1.35729909       1.35666378       1.35652533       0.00000000
Si      -1.35734796       1.35669636      -1.35700883       0.00000000
Si       1.35799956      -1.35799956      -1.35728512       0.00000000
Si      -1.35826020      -1.35834165       1.35745779       0.00000000
Si       2.71417464      -0.00184077      -2.71360323       0.00000000
Si      -2.71443528       2.71502025       0.00006907       0.00000000
Si       2.71453302       2.71505767      -0.00027629       0.00000000
Si      -0.00034209       2.71459981      -2.71505373       0.00000000
Si      -2.71482624      -2.71549413       0.00037989       0.00000000
Si       2.71520091      -2.71513575       0.00031082       0.00000000
