10
Lattice="16.28999089631971 0.0 0.0 0.0 16.28999089631971 0.0 0.0 0.0 34.53561885213415" Properties=species:S:1:pos:R:3:initial_magmoms:R:1 pbc="T T T"
Si      -1.35729909      -1.35666378      -1.35652533       0.00000000
Si       1.35723393       1.35839389      -1.35680162       0.00000000
Si       1.35664749      -1.35777150       1.36011704       0.00000000
Si      -1.35694071       1.36077717       1.35956447       0.00000000
Si      -2.71464705       0.00003258      -2.71353416       0.00000000
Si       0.00070047      -2.71466334      -2.71381045       0.00000000
Si       2.71503801      -2.71409319       0.00110514       0.00000000
Si       0.00050499       2.71572612      -2.71384498       0.00000000
Si       2.71344159       2.71618387       0.00027629       0.00000000
Si       2.71539639      -0.00017919      -2.71439755       0.00000000
