10
Lattice="16.28999089631971 0.0 0.0 0.0 16.28999089631971 0.0 0.0 0.0 34.53561885213415" Properties=species:S:1:pos:R:3:initial_magmoms:R:1 pbc="T T T"
Si      -1.33372746      -1.35975888      -1.36819838       0.00000000
Si       1.42089525      -1.26332208       1.39441093       0.00000000
Si       1.38038202       1.35719337      -1.37116844       0.00000000
Si      -1.34864910       1.35353557       1.52464482       0.00000000
Si       0.54692046       2.15145518       2.82159617       0.00000000
Si       2.35729332       0.36167058       2.84432062       0.00000000
Si      -2.67879113       2.72507658       0.00821948       0.00000000
Si      -2.69222061      -0.00285075      -2.73035302       0.00000000
Si      -2.70357474      -2.72119563       0.02780119       0.00000000
Si       0.02344131       2.71280695      -2.73021487       0.00000000
