10
Lattice="16.28999089631971 0.0 0.0 0.0 16.28999089631971 0.0 0.0 0.0 34.53561885213415" Properties=species:S:1:pos:R:3:initial_magmoms:R:1 pbc="T T T"
Si      -1.42089525       1.26332208      -1.39441093       0.00000000
Si       0.93639807       1.62499266       1.44990970       0.00000000
Si       1.33641531      -1.45844370      -1.37980235       0.00000000
Si      -1.03464306      -1.51791849       1.59281817       0.00000000
Si       0.66168351      -3.35881881       1.35645626       0.00000000
Si       2.66445756       2.65818234       0.10108581       0.00000000
Si      -0.87397479       3.41477726       1.42718525       0.00000000
Si      -0.04051323       2.62051545      -2.76557937       0.00000000
Si      -2.76954435       2.61685765       0.13023389       0.00000000
Si       2.67307497      -0.09803322      -2.76502680       0.00000000
