10
Lattice="16.28999089631971 0.0 0.0 0.0 16.28999089631971 0.0 0.0 0.0 34.53561885213415" Properties=species:S:1:pos:R:3:initial_magmoms:R:1 pbc="T T T"
Si       1.97236062       1.28212074       0.30857593       0.00000000
Si      -1.60920765      -0.33684462       1.72097992       0.00000000
Si      -1.35809730       0.66640761      -1.86264511       0.00000000
Si       1.33141428      -2.00326275      -0.04468912       0.00000000
Si       2.54435139       0.18502182       2.35246406       0.00000000
Si      -2.94599763       1.57540590       1.33991369       0.00000000
Si       3.15139824       0.63625482      -1.69825547       0.00000000
Si       2.08108008      -2.15469459       2.18569147       0.00000000
Si      -0.02231730       2.02865886      -3.19610063       0.00000000
Si      -2.88339516       2.25616500      -0.96641076       0.00000000
