10
Lattice="16.28999089631971 0.0 0.0 0.0 16.28999089631971 0.0 0.0 0.0 34.53561885213415" Properties=species:S:1:pos:R:3:initial_magmoms:R:1 pbc="T T T"
Si       0.87920388       0.66099933       2.06802855       0.00000000
Si       0.99052974      -2.09826603      -0.34694502       0.00000000
Si       1.62927693       0.97456554      -1.41720445       0.00000000
Si      -2.19940738       0.31651470      -0.84149536       0.00000000
Si       2.11431168      -1.56538755      -2.35750627       0.00000000
Si       2.65890267      -0.82834650       2.41714931       0.00000000
Si      -1.97006862      -0.06623514      -3.22345286       0.00000000
Si      -0.44444007      -0.31900707       3.77391639       0.00000000
Si      -3.01411331       2.41271190      -0.05094007       0.00000000
Si       2.14739667      -2.93510681       1.51908458       0.00000000
