10
Lattice="16.28999089631971 0.0 0.0 0.0 16.28999089631971 0.0 0.0 0.0 34.53561885213415" Properties=species:S:1:pos:R:3:initial_magmoms:R:1 pbc="T T T"
Si      -1.35550719       1.35557398       1.35662894       0.00000000
Si      -1.35620766      -1.35778997      -1.35707790       0.00000000
Si       1.35940050       1.35684460      -1.35731965       0.00000000
Si       1.35834165      -1.35655995       1.36260360       0.00000000
Si      -2.71166598       2.71285678       0.00058711       0.00000000
Si      -2.71293660      -0.00045775      -2.71412127       0.00000000
Si       0.00175932       2.71429030      -2.71367230       0.00000000
Si      -2.71344159      -2.71618387      -0.00027629       0.00000000
Si      -2.70774009      -0.00602078       2.72244436       0.00000000
Si       2.71674846       0.00004887      -2.71394859       0.00000000
