10
Lattice="16.28999089631971 0.0 0.0 0.0 16.28999089631971 0.0 0.0 0.0 34.53561885213415" Properties=species:S:1:pos:R:3:initial_magmoms:R:1 pbc="T T T"
Si      -0.99113247      -1.79717242      -1.42918831       0.00000000
Si       1.78181649       0.96876630      -1.47733099       0.00000000
Si      -1.74689073       1.80441072      -0.29165346       0.00000000
Si       0.34435431      -0.35235759       2.63693412       0.00000000
Si       2.48774364       2.69985573       0.02441670       0.00000000
Si       0.38050182       2.23964694      -2.93853384       0.00000000
Si      -2.33346105      -0.48545340      -2.93269732       0.00000000
Si      -2.71919196      -2.83036211      -0.08036443       0.00000000
Si       1.76148657       2.58421302       2.51916759       0.00000000
Si      -3.62900475       0.87265530      -1.51397331       0.00000000
