10
Lattice="16.28999089631971 0.0 0.0 0.0 16.28999089631971 0.0 0.0 0.0 34.53561885213415" Properties=species:S:1:pos:R:3:initial_magmoms:R:1 pbc="T T T"
Si       0.42135714      -1.18201869       1.97941010       0.00000000
Si       1.12019814      -1.76886594      -1.07657945       0.00000000
Si       1.19407329       2.02727421       0.18072499       0.00000000
Si      -2.21863284       0.24736365      -0.79853303       0.00000000
Si       0.21525606       2.88326484       2.21169680       0.00000000
Si       2.68182270      -0.69871068       2.55221820       0.00000000
Si       1.02718224      -1.35922131      -3.36560154       0.00000000
Si      -0.06882525      -3.41602440       1.61664776       0.00000000
Si      -2.56927509      -1.52169777      -2.34341573       0.00000000
Si      -3.72654927       0.01876608       1.02387806       0.00000000
