10
Lattice="16.28999089631971 0.0 0.0 0.0 16.28999089631971 0.0 0.0 0.0 34.53561885213415" Properties=species:S:1:pos:R:3:initial_magmoms:R:1 pbc="T T T"
Si       0.45787932       2.07285363       0.93726268       0.00000000
Si      -2.12781609      -0.49241901      -0.80288452       0.00000000
Si       0.80211960      -1.73220041       1.36857827       0.00000000
Si       1.26047133      -0.30690360      -1.99484753       0.00000000
Si      -1.43249373      -2.68163441      -1.43457587       0.00000000
Si       0.93985155       2.44872909      -2.21608283       0.00000000
Si       3.37043358      -0.78784304      -0.96295720       0.00000000
Si       0.28349487      -3.60503306      -0.03608974       0.00000000
Si      -2.21601015       0.91898406      -2.76858397       0.00000000
Si       3.19228614      -1.38680842       1.38674401       0.00000000
