10
Lattice="16.28999089631971 0.0 0.0 0.0 16.28999089631971 0.0 0.0 0.0 34.53561885213415" Properties=species:S:1:pos:R:3:initial_magmoms:R:1 pbc="T T T"
Si      -0.87920388      -0.66099933      -2.06802855       0.00000000
Si       1.77969879      -1.48934583       0.34912077       0.00000000
Si      -1.32364395      -0.98000640       1.70588785       0.00000000
Si       1.35588186       1.97602587       0.31627737       0.00000000
Si       2.07234864      -0.86231115       2.56720666       0.00000000
Si       0.75007305       0.31356621      -3.48523300       0.00000000
Si       0.11132586      -2.75926536      -2.41497357       0.00000000
Si       2.81935917       1.33732755       2.09099475       0.00000000
Si      -0.09894546      -0.62786547       3.70415441       0.00000000
Si       1.26819279      -3.59610614      -0.54894397       0.00000000
