10
Lattice="16.28999089631971 0.0 0.0 0.0 16.28999089631971 0.0 0.0 0.0 34.53561885213415" Properties=species:S:1:pos:R:3:initial_magmoms:R:1 pbc="T T T"
Si      -1.35690813       1.35736425       1.35635265       0.00000000
Si       1.35764118      -1.35744570       1.35635265       0.00000000
Si      -1.35778779      -1.35684297      -1.35700883       0.00000000
Si       1.35803214       1.35666378      -1.35797583       0.00000000
Si      -2.71308321      -0.00259011      -2.71318880       0.00000000
Si       0.00179190       2.71332756       2.71394859       0.00000000
Si      -2.71342530      -0.00143352       2.71425941       0.00000000
Si      -0.00175932      -2.71429030       2.71367230       0.00000000
Si       2.71498914      -2.71424143      -0.00027629       0.00000000
Si      -2.71469592      -2.71474805      -0.00044896       0.00000000
