10
Lattice="16.28999089631971 0.0 0.0 0.0 16.28999089631971 0.0 0.0 0.0 34.53561885213415" Properties=species:S:1:pos:R:3:initial_magmoms:R:1 pbc="T T T"
Si       1.35083196       1.35368271      -1.36250000       0.00000000
Si      -1.36172997      -1.36350558      -1.35997889       0.00000000
Si      -1.29912750       1.40888952       1.38197810       0.00000000
Si       1.40131467      -1.27088064       1.46120285       0.00000000
Si      -2.12739255      -0.43523622       2.64688038       0.00000000
Si       0.60005844       2.31922359       2.62249822       0.00000000
Si       2.10724182       0.46020879       2.96295054       0.00000000
Si      -0.38050182      -2.23964694       2.93853384       0.00000000
Si       2.71686249       2.69762400      -0.03194547       0.00000000
Si      -0.00267156       2.70853830      -2.71633155       0.00000000
