10
Lattice="16.28999089631971 0.0 0.0 0.0 16.28999089631971 0.0 0.0 0.0 34.53561885213415" Properties=species:S:1:pos:R:3:initial_magmoms:R:1 pbc="T T T"
Si       0.81018315       1.71307269      -1.33898123       0.00000000
Si       1.50718338      -1.85901480       0.34045232       0.00000000
Si      -0.02878443       1.16714592       2.13319730       0.00000000
Si      -1.89918594      -0.91033407      -1.24052012       0.00000000
Si       2.11680405       0.37840041      -2.65444368       0.00000000
Si       0.78092631      -1.97465751       2.83520321       0.00000000
Si      -1.43560512      -0.90927522       3.11635784       0.00000000
Si      -0.60005844      -2.31922359      -2.62249822       0.00000000
Si       3.24423495      -1.07380422      -1.22988315       0.00000000
Si       2.44032345       2.73772998      -0.07701447       0.00000000
