10
Lattice="16.28999089631971 0.0 0.0 0.0 16.28999089631971 0.0 0.0 0.0 34.53561885213415" Properties=species:S:1:pos:R:3:initial_magmoms:R:1 pbc="T T T"
Si      -1.47395571      -1.83473618       0.14428990       0.00000000
Si       2.21993930      -0.80513325      -0.02790480       0.00000000
Si      -0.23082816       0.93195090       2.17021950       0.00000000
Si      -0.28548618       1.91503611      -1.41471788       0.00000000
Si      -2.19459273       2.77726581      -0.24592828       0.00000000
Si       1.30383205       3.29515749      -0.33237098       0.00000000
Si      -2.26685517       2.03352957       1.95544237       0.00000000
Si      -0.24169082      -3.59387441      -0.82388218       0.00000000
Si       1.19161187       2.86681194       2.02033483       0.00000000
Si       1.95069818      -3.19372685      -0.05304674       0.00000000
