10
Lattice="16.28999089631971 0.0 0.0 0.0 16.28999089631971 0.0 0.0 0.0 34.53561885213415" Properties=species:S:1:pos:R:3:initial_magmoms:R:1 pbc="T T T"
Si      -1.05959934      -1.98019611       0.70231674       0.00000000
Si       2.26813815      -0.27821691       0.58772749       0.00000000
Si      -0.26784018       1.55936025       1.77240349       0.00000000
Si      -0.64469304       0.56759247      -2.48970869       0.00000000
Si      -2.53114020      -1.19692404      -1.01476066       0.00000000
Si       1.76565681       0.68121522       2.71795472       0.00000000
Si       0.19738593       3.61519083       0.76841795       0.00000000
Si       3.45947472       1.46100123      -0.48671075       0.00000000
Si       0.41687739      -3.79236087       1.07979126       0.00000000
Si      -1.80483426       2.74450662      -2.30770588       0.00000000
