10
Lattice="16.28999089631971 0.0 0.0 0.0 16.28999089631971 0.0 0.0 0.0 34.53561885213415" Properties=species:S:1:pos:R:3:initial_magmoms:R:1 pbc="T T T"
Si       1.35604476       1.35827988      -1.35749233       0.00000000
Si       1.35749457      -1.35708732       1.35766501       0.00000000
Si      -1.35852084      -1.35832536      -1.35573101       0.00000000
Si      -1.35816246       1.35857308       1.35759594       0.00000000
Si      -2.70899442      -0.00553860      -2.71664237       0.00000000
Si      -0.00162900      -2.71099809      -2.71539909       0.00000000
Si       2.71498914      -2.71409319       0.00013814       0.00000000
Si      -2.71469592      -2.71448415       0.00058711       0.00000000
Si      -0.00035838      -2.71391400       2.71550269       0.00000000
Si      -2.71539639       0.00017919       2.71439755       0.00000000
