10
Lattice="16.28999089631971 0.0 0.0 0.0 16.28999089631971 0.0 0.0 0.0 34.53561885213415" Properties=species:S:1:pos:R:3:initial_magmoms:R:1 pbc="T T T"
Si       1.35839052      -1.35632169      -1.35901190       0.00000000
Si      -1.35664749       1.35777150      -1.36011704       0.00000000
Si      -1.33665966      -1.36041048       1.38522445       0.00000000
Si       1.35754344       1.35366642       1.39075015       0.00000000
Si      -2.71350675      -2.71370223       0.00238296       0.00000000
Si       0.00125433      -2.71402803      -2.71633155       0.00000000
Si      -2.71394658       0.00110772      -2.71664237       0.00000000
Si      -2.71358820       2.71854867      -0.00055257       0.00000000
Si       2.71513575       2.71739542       0.00276285       0.00000000
Si       2.72033226      -2.71236645      -0.00069071       0.00000000
