10
Lattice="16.28999089631971 0.0 0.0 0.0 16.28999089631971 0.0 0.0 0.0 34.53561885213415" Properties=species:S:1:pos:R:3:initial_magmoms:R:1 pbc="T T T"
Si       1.68867027       0.94250682       1.31041179       0.00000000
Si      -0.90652221      -1.82135069       1.15067065       0.00000000
Si       1.40755374       0.53364411      -1.81447087       0.00000000
Si      -1.99826172       1.71486459       0.12867133       0.00000000
Si      -0.47597751       1.38808719      -2.91881697       0.00000000
Si      -2.49740361       0.59906475      -2.07165777       0.00000000
Si      -2.25398214      -0.45538695       2.68697125       0.00000000
Si       2.44561770       2.56122783      -0.22638408       0.00000000
Si       0.44693244       2.28343446       2.71560129       0.00000000
Si      -0.94273488       3.50609670       1.37048999       0.00000000
