10
Lattice="16.28999089631971 0.0 0.0 0.0 16.28999089631971 0.0 0.0 0.0 34.53561885213415" Properties=species:S:1:pos:R:3:initial_magmoms:R:1 pbc="T T T"
Si      -1.35552348      -1.35713824      -1.37403490       0.00000000
Si       1.36275624       1.35359474      -1.37503643       0.00000000
Si       1.28500407      -1.50690386       1.32868961       0.00000000
Si      -1.30632768       1.44762062       1.44117218       0.00000000
Si      -2.70764235       2.71850126      -0.02003067       0.00000000
Si       2.71031391       2.72019542       0.00065618       0.00000000
Si      -2.71311579      -2.72086724       0.01395240       0.00000000
Si       2.72036484      -2.72937062      -0.03146197       0.00000000
Si      -2.71386513      -0.00057829      -2.73663850       0.00000000
Si       0.00273672       2.71639985      -2.73546429       0.00000000
