10
Lattice="16.28999089631971 0.0 0.0 0.0 16.28999089631971 0.0 0.0 0.0 34.53561885213415" Properties=species:S:1:pos:R:3:initial_magmoms:R:1 pbc="T T T"
Si      -1.38966732       1.22266224      -1.34511130       0.00000000
Si       1.24173783      -1.34092764      -1.40518950       0.00000000
Si      -1.35718506      -1.34912151       1.32563320       0.00000000
Si       1.35330804       1.36783872       1.32494249       0.00000000
Si       0.33884829       2.06179272      -2.78367401       0.00000000
Si       1.99868526       0.27779337      -2.94198537       0.00000000
Si      -0.44693244      -2.28343446      -2.71560129       0.00000000
Si      -2.44519416      -0.56856987      -2.58692997       0.00000000
Si      -0.00405621      -2.70536175       2.68267657       0.00000000
Si       2.70891297       0.00946449       2.68170957       0.00000000
