10
Lattice="16.28999089631971 0.0 0.0 0.0 16.28999089631971 0.0 0.0 0.0 34.53561885213415" Properties=species:S:1:pos:R:3:initial_magmoms:R:1 pbc="T T T"
Si      -0.69607170       1.15188219       1.87000120       0.00000000
Si       2.31703000       0.57640536       0.10909808       0.00000000
Si      -0.71679258       1.80970497      -1.62476363       0.00000000
Si      -0.80255943      -2.17741914       1.20215103       0.00000000
Si      -1.45968174      -0.07281630      -2.86003434       0.00000000
Si       1.85623151       2.84548833      -0.46250127       0.00000000
Si       2.99798295      -1.39439142      -1.21921163       0.00000000
Si      -3.19673331      -0.85802688      -1.28969887       0.00000000
Si      -2.97329967       1.05777486       1.66416880       0.00000000
Si       0.29812329       3.36284244       1.52471389       0.00000000
