10
Lattice="16.28999089631971 0.0 0.0 0.0 16.28999089631971 0.0 0.0 0.0 34.53561885213415" Properties=species:S:1:pos:R:3:initial_magmoms:R:1 pbc="T T T"
Si      -2.27722797      -0.09410733      -0.20583240       0.00000000
Si       0.69607170      -1.15188219      -1.87000120       0.00000000
Si       0.89002044      -1.05544539       1.89296740       0.00000000
Si       0.99419499       2.21096025      -0.34528731       0.00000000
Si      -0.10648773      -3.32930133      -0.66785017       0.00000000
Si      -2.79542916       0.75419442       1.88692366       0.00000000
Si       2.72601162       0.42334452       2.08208455       0.00000000
Si       3.01310170      -0.57547683      -1.76090312       0.00000000
Si      -0.02072088       0.65782278      -3.49476483       0.00000000
Si      -1.05386526       3.53561418      -0.41549826       0.00000000
