10
Lattice="16.28999089631971 0.0 0.0 0.0 16.28999089631971 0.0 0.0 0.0 34.53561885213415" Properties=species:S:1:pos:R:3:initial_magmoms:R:1 pbc="T T T"
Si       0.81470592      -2.09619720      -0.79055529       0.00000000
Si       1.07787576       1.96561656      -0.82757750       0.00000000
Si       0.06424776      -0.01154961       2.43804338       0.00000000
Si      -2.08834542       0.67562775      -1.10911202       0.00000000
Si      -1.17859779      -3.28953744      -0.08509581       0.00000000
Si      -2.12931477       2.81649213      -0.12097834       0.00000000
Si      -1.20148524       0.56042487      -3.29349113       0.00000000
Si      -0.02427210       3.52569357       0.52394017       0.00000000
Si      -2.96838009      -1.91655108       0.94126882       0.00000000
Si       0.63450594       2.03921478      -3.10437398       0.00000000
