10
Lattice="16.28999089631971 0.0 0.0 0.0 16.28999089631971 0.0 0.0 0.0 34.53561885213415" Properties=species:S:1:pos:R:3:initial_magmoms:R:1 pbc="T T T"
Si       2.10504267       0.70920144       0.64491851       0.00000000
Si       0.04096935      -2.14086438      -0.98813368       0.00000000
Si      -1.66003245       0.26686278       1.65373903       0.00000000
Si       0.02845863       1.69044588      -1.70271057       0.00000000
Si      -2.32681473      -2.00705832      -1.30924604       0.00000000
Si       3.20719053      -0.85087557      -0.70659916       0.00000000
Si      -0.29787894       3.41472609      -0.11085940       0.00000000
Si      -1.94468391       2.57634495       1.41520138       0.00000000
Si       2.12931477      -2.81649213       0.12097834       0.00000000
Si      -3.30563196      -1.15106769       0.72172577       0.00000000
