10
Lattice="16.28999089631971 0.0 0.0 0.0 16.28999089631971 0.0 0.0 0.0 34.53561885213415" Properties=species:S:1:pos:R:3:initial_magmoms:R:1 pbc="T T T"
Si      -1.34581042      -1.33602435      -1.38778008       0.00000000
Si       1.36902300       1.37968155      -1.38546620       0.00000000
Si      -1.60754185       1.18586313       1.39696656       0.00000000
Si       1.34877453      -1.42130250       1.47391197       0.00000000
Si       2.28153993       0.37558224       2.82045650       0.00000000
Si      -2.71083097      -2.69146638      -0.00856484       0.00000000
Si       2.72904252      -2.69643483      -0.00811587       0.00000000
Si       0.01112444      -2.69871543      -2.74444356       0.00000000
Si      -2.70328870       0.01718595      -2.74575591       0.00000000
Si      -2.70027505       2.74984974      -0.00669991       0.00000000
