10
Lattice="16.28999089631971 0.0 0.0 0.0 16.28999089631971 0.0 0.0 0.0 34.53561885213415" Properties=species:S:1:pos:R:3:initial_magmoms:R:1 pbc="T T T"
Si       1.75443300      -0.28256634       1.59965622       0.00000000
Si       1.67778855       1.03180860      -1.39226972       0.00000000
Si      -0.93276540      -1.79688474      -1.34654453       0.00000000
Si      -1.26511398       2.30415534       0.71989538       0.00000000
Si       0.76540194       2.33396604       2.24899529       0.00000000
Si      -2.78932204      -1.17410175       1.51203931       0.00000000
Si      -3.25012053       1.09498122       0.94043996       0.00000000
Si      -2.28153993      -0.37558224      -2.82045650       0.00000000
Si       0.43359093       2.36411883      -2.84362991       0.00000000
Si      -2.10836909      -3.14489853       0.18372959       0.00000000
