10
Lattice="16.28999089631971 0.0 0.0 0.0 16.28999089631971 0.0 0.0 0.0 34.53561885213415" Properties=species:S:1:pos:R:3:initial_magmoms:R:1 pbc="T T T"
Si      -1.63014030      -1.02465729      -1.26196675       0.00000000
Si      -1.41459102       0.71685774       1.69580344       0.00000000
Si       1.01910240       1.79369190      -1.08110362       0.00000000
Si       1.54680066      -1.92901293       0.08240203       0.00000000
Si       0.51365628       0.94877847       3.16166860       0.00000000
Si       2.38813029       0.38605671      -2.52293197       0.00000000
Si      -0.32351940      -2.35932957      -2.57742921       0.00000000
Si      -2.46910788      -1.57058406       2.21021177       0.00000000
Si      -2.44032345      -2.73772998       0.07701447       0.00000000
Si       3.48086349      -1.17792990      -1.11926550       0.00000000
