10
Lattice="16.28999089631971 0.0 0.0 0.0 16.28999089631971 0.0 0.0 0.0 34.53561885213415" Properties=species:S:1:pos:R:3:initial_magmoms:R:1 pbc="T T T"
Si      -0.69343272      -0.64961262       2.22140132       0.00000000
Si       0.85832010       2.24920917      -0.21412096       0.00000000
Si      -1.92824730      -0.23192073      -1.46586516       0.00000000
Si       2.04806025      -1.32465393       0.07021095       0.00000000
Si      -0.51365628      -0.94877847      -3.16166860       0.00000000
Si      -0.90999198       2.95402860       1.40874322       0.00000000
Si      -2.10132855       1.21481046       2.48318145       0.00000000
Si       1.05386526      -3.53561418       0.41549826       0.00000000
Si       2.92464144      -0.88793532       2.24198456       0.00000000
Si      -1.22336271      -3.62972151       0.20966586       0.00000000
