10
Lattice="16.28999089631971 0.0 0.0 0.0 16.28999089631971 0.0 0.0 0.0 34.53561885213415" Properties=species:S:1:pos:R:3:initial_magmoms:R:1 pbc="T T T"
Si      -1.73794752      -0.00506619      -1.55686657       0.00000000
Si      -0.32633757       1.72428021       1.59185117       0.00000000
Si      -0.02845863      -1.69044588       1.70271057       0.00000000
Si       1.88012664      -0.24338889      -1.53628333       0.00000000
Si       2.07658404      -0.98124444       2.34762907       0.00000000
Si       1.76414184       1.38717495       2.65599779       0.00000000
Si      -1.97314254       0.88589907       3.11791195       0.00000000
Si      -2.78607870      -2.13687333      -1.47584596       0.00000000
Si      -3.14584335       1.85935689      -1.29508643       0.00000000
Si       0.01251072      -3.83131026       0.71457689       0.00000000
