10
Lattice="16.28999089631971 0.0 0.0 0.0 16.28999089631971 0.0 0.0 0.0 34.53561885213415" Properties=species:S:1:pos:R:3:initial_magmoms:R:1 pbc="T T T"
Si       1.08219331      -1.52977761       1.56512059       0.00000000
Si      -1.94561244      -1.14917805      -0.95320537       0.00000000
Si      -1.61947035       1.18856131       1.55779558       0.00000000
Si       1.93027608       0.22092498      -1.99700398       0.00000000
Si       2.33500601       2.32155373       0.27726246       0.00000000
Si      -0.87009777      -2.50496217      -2.59025717       0.00000000
Si       2.45993076      -2.89228950       0.17699860       0.00000000
Si       2.43366151      -0.18461457       2.94668425       0.00000000
Si      -2.98813986       2.49076611       0.05549877       0.00000000
Si      -0.28694835       2.53431579       2.94378326       0.00000000
