10
Lattice="16.28999089631971 0.0 0.0 0.0 16.28999089631971 0.0 0.0 0.0 34.53561885213415" Properties=species:S:1:pos:R:3:initial_magmoms:R:1 pbc="T T T"
Si       1.35723393       1.34438112       1.34916924       0.00000000
Si       1.35298224      -1.35902583      -1.35528205       0.00000000
Si      -1.35935163       1.35656604      -1.35548926       0.00000000
Si      -1.37451762      -1.36200690       1.37382769       0.00000000
Si      -0.07812684       2.56684788       2.70932081       0.00000000
Si       2.53060263      -0.02314809       2.85540656       0.00000000
Si       2.71194620       0.00027693      -2.71239448       0.00000000
Si       2.71254564       2.71404432       0.00638909       0.00000000
Si      -2.71345788      -2.71314837       0.00314274       0.00000000
Si      -0.00197109       2.71430627      -2.71305066       0.00000000
