10
Lattice="16.28999089631971 0.0 0.0 0.0 16.28999089631971 0.0 0.0 0.0 34.53561885213415" Properties=species:S:1:pos:R:3:initial_magmoms:R:1 pbc="T T T"
Si      -1.52956584       1.17025731       1.41330192       0.00000000
Si      -0.07771959       1.02433149      -2.16756026       0.00000000
Si      -1.06039755      -2.15086644      -0.08378346       0.00000000
Si       2.22725025       0.34569009       0.82464197       0.00000000
Si      -1.72064754       2.61464274      -1.65525860       0.00000000
Si       2.78963776       2.22830910      -0.48173762       0.00000000
Si      -2.33373798      -0.53359524       2.81579419       0.00000000
Si       0.48019662      -3.65492214       0.94568938       0.00000000
Si      -3.24555444       2.09365596       0.01481579       0.00000000
Si      -3.10928859      -2.05871391       1.12983340       0.00000000
