10
Lattice="16.28999089631971 0.0 0.0 0.0 16.28999089631971 0.0 0.0 0.0 34.53561885213415" Properties=species:S:1:pos:R:3:initial_magmoms:R:1 pbc="T T T"
Si       1.88336835       1.05107967      -0.98409301       0.00000000
Si      -1.07551467       1.35578412       1.63705180       0.00000000
Si      -1.43081586      -0.70465653      -1.85611787       0.00000000
Si       1.70795763      -1.56416580       1.37983689       0.00000000
Si       2.77394332      -1.03907394      -1.75976344       0.00000000
Si      -2.17385163      -0.41627466       2.80599439       0.00000000
Si       0.87009777       2.50496217       2.59025717       0.00000000
Si      -0.52538508      -2.72259657      -2.67599392       0.00000000
Si       2.80037385       2.72588715       0.59325319       0.00000000
Si       1.71173691      -3.25034370      -1.76984785       0.00000000
