10
Lattice="16.28999089631971 0.0 0.0 0.0 16.28999089631971 0.0 0.0 0.0 34.53561885213415" Properties=species:S:1:pos:R:3:initial_magmoms:R:1 pbc="T T T"
Si       1.30875489      -1.32131448      -1.53338233       0.00000000
Si      -1.40573415       1.38293955      -1.49781063       0.00000000
Si      -0.38995002      -1.38127797       2.03014295       0.00000000
Si       1.68409278       1.32289461       1.46161728       0.00000000
Si       3.38041935      -0.51800571       1.22525537       0.00000000
Si       2.55295251      -2.65362471      -0.08202214       0.00000000
Si       2.71873584       2.84081310      -0.13120089       0.00000000
Si       2.67830406       0.02907765      -2.89384473       0.00000000
Si      -0.03735297      -2.68133400      -2.89567512       0.00000000
Si      -0.03588687       2.74437630      -2.89381019       0.00000000
