10
Lattice="16.28999089631971 0.0 0.0 0.0 16.28999089631971 0.0 0.0 0.0 34.53561885213415" Properties=species:S:1:pos:R:3:initial_magmoms:R:1 pbc="T T T"
Si      -1.35769494       1.35689072      -1.35700883       0.00000000
Si      -1.35780897      -1.35762342       1.35683615       0.00000000
Si       1.35708732      -1.35832389      -1.35707790       0.00000000
Si       1.35785295       1.35803428       1.35697429       0.00000000
Si       0.00037467       2.71011079       2.71595166       0.00000000
Si      -0.00171045       2.71307557      -2.71457023       0.00000000
Si      -2.71394140       0.00055942      -2.71470837       0.00000000
Si      -2.71467475       2.71406926      -0.00024175       0.00000000
Si       2.71474479       2.71400410      -0.00037989       0.00000000
Si      -0.00247608      -2.71488993      -2.71412127       0.00000000
