10
Lattice="10.86 0.0 0.0 0.0 10.86 0.0 0.0 0.0 10.86" Properties=species:S:1:pos:R:3:initial_magmoms:R:1 pbc="T T T"
Si      -1.42526640      -1.40877006       1.18726950       0.00000000
Si       1.50395796       1.28877792       1.39135062       0.00000000
Si       1.28973360      -1.40877006      -1.52773050       0.00000000
Si      -1.42526640       1.30622994      -1.52773050       0.00000000
Si      -0.06898272       2.63724240       2.58419130       0.00000000
Si      -2.78276640      -0.05127006       2.54476950       0.00000000
Si       2.62889106       2.72124450      -0.12106728       0.00000000
Si       2.62771818      -0.38382498       2.72272146       0.00000000
Si       2.55578154      -2.81663874      -0.25158276       0.00000000
Si      -2.78276640       2.66372994      -0.17023050       0.00000000
