10
Lattice="10.86 0.0 0.0 0.0 10.86 0.0 0.0 0.0 10.86" Properties=species:S:1:pos:R:3:initial_magmoms:R:1 pbc="T T T"
Si       1.12493310       1.43246658      -1.51241790       0.00000000
Si      -1.57294068       1.34846448       1.19284068       0.00000000
Si       1.12376022      -1.67260290       1.33137084       0.00000000
Si      -1.50395796      -1.28877792      -1.39135062       0.00000000
Si       2.50077564       2.73245202      -0.20408112       0.00000000
Si      -0.21422436       2.73245202       2.51091888       0.00000000
Si       2.50077564       0.01745202      -2.91908112       0.00000000
Si      -0.52047636      -2.93360094       2.45032008       0.00000000
Si      -2.92922436       0.01745202       2.51091888       0.00000000
Si      -0.21422436      -2.69754798      -2.91908112       0.00000000
