10
Lattice="10.86 0.0 0.0 0.0 10.86 0.0 0.0 0.0 10.86" Properties=species:S:1:pos:R:3:initial_magmoms:R:1 pbc="T T T"
Si      -1.26604794       1.40786868      -1.27614774       0.00000000
Si      -1.26604794      -1.30713132       1.43885226       0.00000000
Si       1.44895206      -1.30713132      -1.27614774       0.00000000
Si      -2.62354794       0.05036868      -2.63364774       0.00000000
Si      -2.62354794      -2.66463132       0.08135226       0.00000000
Si       0.09145206      -2.66463132      -2.63364774       0.00000000
Si      -2.55578154       2.81663874       0.25158276       0.00000000
Si       0.09145206       2.76536868      -2.63364774       0.00000000
Si       0.07193664       2.43281376       2.97430422       0.00000000
Si       2.80645206       0.05036868      -2.63364774       0.00000000
