10
Lattice="10.86 0.0 0.0 0.0 10.86 0.0 0.0 0.0 10.86" Properties=species:S:1:pos:R:3:initial_magmoms:R:1 pbc="T T T"
Si       1.42502748      -1.36812108      -1.15189848       0.00000000
Si      -1.28997252      -1.36812108       1.56310152       0.00000000
Si       1.42502748       1.34687892       1.56310152       0.00000000
Si      -1.41951060       2.34783426      -1.84943628       0.00000000
Si      -2.85285684       0.24364410      -2.29793256       0.00000000
Si       0.06752748      -2.72562108      -2.50939848       0.00000000
Si      -2.77647846       2.52135534      -0.07533582       0.00000000
Si      -2.64747252      -2.72562108       0.20560152       0.00000000
Si       2.59180416       0.18732414      -2.89286508       0.00000000
Si       2.78252748      -2.72562108       0.20560152       0.00000000
