10
Lattice="10.86 0.0 0.0 0.0 10.86 0.0 0.0 0.0 10.86" Properties=species:S:1:pos:R:3:initial_magmoms:R:1 pbc="T T T"
Si       1.34958306      -1.18091640      -1.21755804       0.00000000
Si      -1.36541694       1.53408360      -1.21755804       0.00000000
Si      -1.34401188      -1.19534934       1.57532988       0.00000000
Si       1.34958306       1.53408360       1.49744196       0.00000000
Si      -0.00791694      -2.53841640      -2.57505804       0.00000000
Si      -2.46100632      -2.75116380       0.34368642       0.00000000
Si       3.00119358      -2.19741240      -0.04997772       0.00000000
Si       2.70708306       0.17658360      -2.57505804       0.00000000
Si      -2.72291694       0.17658360      -2.57505804       0.00000000
Si      -0.00791694       2.89158360      -2.57505804       0.00000000
