10
Lattice="16.28999089631971 0.0 0.0 0.0 16.28999089631971 0.0 0.0 0.0 34.26581377546328" Properties=species:S:1:pos:R:3:initial_magmoms:R:1 pbc="T T T"
Si      -1.37755638       1.77950331      -0.63134797       0.00000000
Si       2.23378091      -0.05786208      -0.77618965       0.00000000
Si      -1.39404186      -1.86285924      -0.43836280       0.00000000
Si      -3.22958277      -0.91893519       0.74583012       0.00000000
Si       0.27657651       3.30301857      -1.12964171       0.00000000
Si       1.59006527       0.78003036       3.18048608       0.00000000
Si       3.09182408       1.93279221       0.38569622       0.00000000
Si       3.05251631      -2.05346853       0.05081623       0.00000000
Si      -3.06388089       1.88201628       0.96862657       0.00000000
Si      -0.37277564      -3.68136081       0.56322750       0.00000000
