10
Lattice="16.28999089631971 0.0 0.0 0.0 16.28999089631971 0.0 0.0 0.0 34.26581377546328" Properties=species:S:1:pos:R:3:initial_magmoms:R:1 pbc="T T T"
Si       0.19334601       0.18135657      -2.27000863       0.00000000
Si       0.81873540      -1.99560645       0.82700588       0.00000000
Si      -2.23378091       0.05786208       0.77618965       0.00000000
Si       0.85804317       1.99065429       1.16188586       0.00000000
Si      -0.69577848       2.37255705      -2.13047816       0.00000000
Si       3.45685203      -0.23908833       1.05446248       0.00000000
Si       2.47590081       0.68279535      -2.70275184       0.00000000
Si      -0.93335184      -1.72867851      -3.22527152       0.00000000
Si      -0.48931902      -3.85248726       0.23372725       0.00000000
Si      -1.95720440       3.36088065      -0.35345207       0.00000000
