10
Lattice="16.28999089631971 0.0 0.0 0.0 16.28999089631971 0.0 0.0 0.0 34.26581377546328" Properties=species:S:1:pos:R:3:initial_magmoms:R:1 pbc="T T T"
Si       1.21974633      -1.43753988       1.41487051       0.00000000
Si      -1.48898745       1.29287051       1.40964497       0.00000000
Si      -0.87045615      -0.80364434      -2.14967872       0.00000000
Si       1.91707236       0.79407071      -1.62119678       0.00000000
Si       2.68602552       2.49860744      -0.13458934       0.00000000
Si       1.14961788      -1.38413996      -3.24786440       0.00000000
Si      -2.70956457       2.65750010      -0.09952854       0.00000000
Si       2.57789250      -0.06457356       2.79126391       0.00000000
Si       2.66722686      -2.73773880      -0.01923341       0.00000000
Si      -0.13895370       2.65078862       2.78859118       0.00000000
