10
Lattice="16.28999089631971 0.0 0.0 0.0 16.28999089631971 0.0 0.0 0.0 34.26581377546328" Properties=species:S:1:pos:R:3:initial_magmoms:R:1 pbc="T T T"
Si      -2.29443021       0.31325670       0.29043720       0.00000000
Si       0.83732229       1.78246809       1.35421998       0.00000000
Si       0.34319772       0.47399013      -2.31914584       0.00000000
Si       0.65199096      -2.29553304       0.29903792       0.00000000
Si       3.08141640       1.15618275       1.11853958       0.00000000
Si      -2.62254339       2.12229378      -1.19162861       0.00000000
Si      -3.33203805      -1.40862888      -0.91112850       0.00000000
Si      -1.79462043       0.99157230      -3.13803071       0.00000000
Si      -2.72947095       0.55055313       2.62349497       0.00000000
Si       3.83246685      -0.52880598      -0.29979177       0.00000000
