10
Lattice="16.28999089631971 0.0 0.0 0.0 16.28999089631971 0.0 0.0 0.0 34.26581377546328" Properties=species:S:1:pos:R:3:initial_magmoms:R:1 pbc="T T T"
Si      -0.88599681       0.58287249       2.10481305       0.00000000
Si       1.81102446       1.46803851      -0.40409697       0.00000000
Si       1.20285360      -2.04686131       0.14641790       0.00000000
Si      -1.81670967       0.48557232      -1.50474979       0.00000000
Si       3.29442444      -1.26402255       0.83516115       0.00000000
Si       1.75008357       1.71748728      -2.77402477       0.00000000
Si      -3.58495659      -0.83732229      -0.68497400       0.00000000
Si      -2.72831436       1.99524807       1.66734116       0.00000000
Si      -2.99328750       2.39529789      -0.70957687       0.00000000
Si       0.98176572      -3.33048920      -1.78439325       0.00000000
