10
Lattice="16.28999089631971 0.0 0.0 0.0 16.28999089631971 0.0 0.0 0.0 34.26581377546328" Properties=species:S:1:pos:R:3:initial_magmoms:R:1 pbc="T T T"
Si      -2.15105282      -1.08719460       0.08802892       0.00000000
Si      -0.66310400       1.68713901      -1.67224118       0.00000000
Si       0.43723989       0.84577680       2.32157871       0.00000000
Si       2.05648218      -1.09050147      -1.34860039       0.00000000
Si       1.95708060      -0.98331327       2.46186303       0.00000000
Si      -1.52538615      -0.01215234      -3.08299979       0.00000000
Si      -2.22008984      -2.01866820      -1.98882321       0.00000000
Si      -3.47591852       0.65630781       0.90057462       0.00000000
Si       3.51738567      -1.22138673       0.68336351       0.00000000
Si      -2.57822549       2.83213053       0.72225523       0.00000000
