10
Lattice="16.28999089631971 0.0 0.0 0.0 16.28999089631971 0.0 0.0 0.0 34.26581377546328" Properties=species:S:1:pos:R:3:initial_magmoms:R:1 pbc="T T T"
Si       1.69912845       1.15719273       1.03815194       0.00000000
Si      -0.16291629      -2.26269729       0.71999368       0.00000000
Si       0.75590487      -0.08083098      -2.26980304       0.00000000
Si      -1.69580529       1.63149237       0.83101498       0.00000000
Si       0.60188292       1.38942297       3.10307241       0.00000000
Si      -1.69481160      -1.73084508       2.64981113       0.00000000
Si      -1.71753615      -3.07286415      -0.79599530       0.00000000
Si       3.60121401      -0.02985957       0.25754200       0.00000000
Si       3.11207418       0.56889567      -2.00609319       0.00000000
Si      -1.64618595       3.48060285      -0.69189570       0.00000000
