10
Lattice="16.28999089631971 0.0 0.0 0.0 16.28999089631971 0.0 0.0 0.0 34.26581377546328" Properties=species:S:1:pos:R:3:initial_magmoms:R:1 pbc="T T T"
Si       1.62124596       1.06363926       1.25807862       0.00000000
Si      -1.16010864      -1.69044588       1.14593340       0.00000000
Si       1.09724553      -0.23223024      -2.06492047       0.00000000
Si      -1.81941381       1.61745039      -0.24965370       0.00000000
Si      -2.29768821       0.24206940      -2.27205743       0.00000000
Si      -0.60188292      -1.38942297      -3.10307241       0.00000000
Si       0.23069898       2.41093629       2.57843026       0.00000000
Si      -2.48301954      -0.32368230       2.57812186       0.00000000
Si       2.74688496       2.67300981       0.03229006       0.00000000
Si       1.80085950       1.96410159      -2.76805536       0.00000000
