10
Lattice="16.28999089631971 0.0 0.0 0.0 16.28999089631971 0.0 0.0 0.0 34.26581377546328" Properties=species:S:1:pos:R:3:initial_magmoms:R:1 pbc="T T T"
Si      -1.35799956      -1.35640314      -1.35661859       0.00000000
Si       1.35635427       1.35840681      -1.35682419       0.00000000
Si       1.35858600      -1.35738054       1.35675565       0.00000000
Si      -1.35728280       1.35931905       1.35990811       0.00000000
Si      -0.00154755      -2.70620883       2.71793160       0.00000000
Si       2.71278999      -2.71233387       0.00023986       0.00000000
Si       2.71345788       0.00128691      -2.71351131       0.00000000
Si      -0.00144981      -2.71350675      -2.71371690       0.00000000
Si      -2.71598283       0.00089595      -2.71371690       0.00000000
Si      -0.00104256       2.71555929      -2.71433369       0.00000000
