10
Lattice="16.28999089631971 0.0 0.0 0.0 16.28999089631971 0.0 0.0 0.0 34.26581377546328" Properties=species:S:1:pos:R:3:initial_magmoms:R:1 pbc="T T T"
Si      -1.71087354      -0.81598239      -1.48514973       0.00000000
Si       1.72646307      -1.78733880       0.16656621       0.00000000
Si       1.06411167       1.82086362      -1.36319763       0.00000000
Si      -1.21073796       0.04878855       2.25239600       0.00000000
Si      -0.35072370      -2.19680424      -2.82110602       0.00000000
Si       2.36714877       0.50134104      -2.81322488       0.00000000
Si      -2.80852632      -2.47819770      -0.13415074       0.00000000
Si       0.96646941      -3.47454297      -1.31608211       0.00000000
Si       3.58855668      -0.79597827      -1.20975523       0.00000000
Si       1.64812446      -1.26711765       3.33872570       0.00000000
