10
Lattice="16.28999089631971 0.0 0.0 0.0 16.28999089631971 0.0 0.0 0.0 34.26581377546328" Properties=species:S:1:pos:R:3:initial_magmoms:R:1 pbc="T T T"
Si      -1.39154067      -1.23572682      -1.35857174       0.00000000
Si      -0.91109970      -0.19798866       2.12465297       0.00000000
Si       1.43441595       1.50679242      -1.10548430       0.00000000
Si       0.95811264       0.84719403       2.94288679       0.00000000
Si      -0.02350647      -2.56920993      -2.68092450       0.00000000
Si      -2.80857030      -2.48699430       0.10965067       0.00000000
Si       2.70632286       0.13297527      -2.63781808       0.00000000
Si      -0.40369878      -2.41926048       2.91955176       0.00000000
Si      -2.74401629       0.14895576      -2.65152442       0.00000000
Si       0.00485442       2.84539059      -2.63966844       0.00000000
