10
Lattice="16.28999089631971 0.0 0.0 0.0 16.28999089631971 0.0 0.0 0.0 34.26581377546328" Properties=species:S:1:pos:R:3:initial_magmoms:R:1 pbc="T T T"
Si      -2.11460490      -0.38123487      -0.97095664       0.00000000
Si       1.59925446      -1.25292906      -1.24525463       0.00000000
Si       0.46170747       2.34561339      -0.15309974       0.00000000
Si      -0.11686446      -0.73852344       2.29738703       0.00000000
Si      -1.80455733       2.94617682       0.01843502       0.00000000
Si       3.15789795      -1.38228795       0.56668834       0.00000000
Si      -1.54792467      -2.33088723      -2.22549732       0.00000000
Si       2.27201517      -0.62542197       2.70977633       0.00000000
Si      -2.71624836       1.74019554      -1.81797377       0.00000000
Si       0.54276651      -3.27969828      -1.78103520       0.00000000
