10
Lattice="16.28999089631971 0.0 0.0 0.0 16.28999089631971 0.0 0.0 0.0 34.26581377546328" Properties=species:S:1:pos:R:3:initial_magmoms:R:1 pbc="T T T"
Si      -0.92546748       1.79817165       1.12570114       0.00000000
Si      -1.34193762      -0.80738127      -1.77466175       0.00000000
Si       1.94036706       0.89313183      -1.10281157       0.00000000
Si       0.51080553      -1.51415550       1.81249123       0.00000000
Si       2.75876037      -0.86439627       1.72593574       0.00000000
Si       3.28062681      -0.94706802      -0.57141703       0.00000000
Si       0.72159813       2.00205729       2.92774130       0.00000000
Si      -3.20802228       1.29673287       1.55844435       0.00000000
Si      -0.51846183       0.14131575      -3.83886979       0.00000000
Si       1.36407573       1.54388475      -3.32382006       0.00000000
