10
Lattice="16.28999089631971 0.0 0.0 0.0 16.28999089631971 0.0 0.0 0.0 34.26581377546328" Properties=species:S:1:pos:R:3:initial_magmoms:R:1 pbc="T T T"
Si       1.38675141      -1.30204082       1.38754693       0.00000000
Si       1.18356624       1.62578435      -1.24849515       0.00000000
Si      -1.34568106       1.41473111       1.37421410       0.00000000
Si      -0.77540074      -1.80362621      -1.41349443       0.00000000
Si       0.36776304      -1.05250342      -3.51947252       0.00000000
Si       2.45441430      -2.88252920      -0.05838555       0.00000000
Si      -2.65965920      -2.71433495      -0.13978747       0.00000000
Si       0.02202082      -2.66077343       2.75708374       0.00000000
Si      -2.69623025       0.05488264       2.75728934       0.00000000
Si       2.73737160       0.05079548       2.75893410       0.00000000
