10
Lattice="16.28999089631971 0.0 0.0 0.0 16.28999089631971 0.0 0.0 0.0 34.26581377546328" Properties=species:S:1:pos:R:3:initial_magmoms:R:1 pbc="T T T"
Si      -0.63205200       2.16239066      -0.71447688       0.00000000
Si      -1.76792112      -1.12769154      -1.09873393       0.00000000
Si       2.16282330      -0.21685248      -0.97393777       0.00000000
Si       0.48852081      -0.30607281       2.35204104       0.00000000
Si       3.35197701       1.27548649       0.49568954       0.00000000
Si       0.12878874       2.29259663      -2.98822049       0.00000000
Si       2.76899049       0.30551115       2.54050312       0.00000000
Si       1.97271900       0.77143643      -3.12775096       0.00000000
Si      -3.07126447      -2.16472923       0.52090919       0.00000000
Si       2.70239697      -2.62009989      -0.91619984       0.00000000
