10
Lattice="16.28999089631971 0.0 0.0 0.0 16.28999089631971 0.0 0.0 0.0 34.26581377546328" Properties=species:S:1:pos:R:3:initial_magmoms:R:1 pbc="T T T"
Si       1.73744253      -0.69221097      -1.46835947       0.00000000
Si       0.57629133      -0.65075292       2.22100849       0.00000000
Si      -1.88253756      -1.40256900      -0.51504973       0.00000000
Si      -0.53957367       2.40324741      -0.05773793       0.00000000
Si       3.73679568       0.24384501      -0.71200974       0.00000000
Si       1.21740057       0.19272699      -3.63330906       0.00000000
Si      -2.70239697       2.62009989       0.91619984       0.00000000
Si      -2.70601335      -2.35126602       1.54915831       0.00000000
Si      -1.36407573      -1.54388475       3.32382006       0.00000000
Si      -3.65883174      -0.25155018      -1.53425267       0.00000000
