10
Lattice="16.28999089631971 0.0 0.0 0.0 16.28999089631971 0.0 0.0 0.0 34.26581377546328" Properties=species:S:1:pos:R:3:initial_magmoms:R:1 pbc="T T T"
Si      -1.35588186       1.35663120      -1.35884587       0.00000000
Si       1.35770634       1.35679410       1.35860601       0.00000000
Si      -1.35723393      -1.35781548       1.35846895       0.00000000
Si       1.36096434      -1.35873098      -1.35617314       0.00000000
Si      -2.71529865      -2.71480150       0.00109651       0.00000000
Si       2.71578735      -2.71440172       0.00181609       0.00000000
Si       2.71608057       2.71419093       0.00222728       0.00000000
Si      -2.71595025       2.71485882       0.00119930       0.00000000
Si       2.71489140      -0.00050499       2.71625258       0.00000000
Si      -2.71541268      -0.00009774       2.71604698       0.00000000
