10
Lattice="16.28999089631971 0.0 0.0 0.0 16.28999089631971 0.0 0.0 0.0 34.26581377546328" Properties=species:S:1:pos:R:3:initial_magmoms:R:1 pbc="T T T"
Si       1.64081025       0.88886548       1.55761310       0.00000000
Si      -1.84142160       1.63138323      -0.07891421       0.00000000
Si       1.36909305      -0.15354791      -2.10669767       0.00000000
Si      -1.09126710      -1.90042628       1.52304915       0.00000000
Si      -2.60887608      -0.54682744      -1.70558183       0.00000000
Si      -1.27523007      -2.55834680      -1.56087722       0.00000000
Si       2.67447591       2.38355769       0.11766887       0.00000000
Si       0.18171495       2.12485620       2.97024947       0.00000000
Si      -1.07246844       3.33591996       1.40769323       0.00000000
Si      -2.53874763      -0.60022737       2.95715307       0.00000000
