10
Lattice="16.28999089631971 0.0 0.0 0.0 16.28999089631971 0.0 0.0 0.0 34.26581377546328" Properties=species:S:1:pos:R:3:initial_magmoms:R:1 pbc="T T T"
Si      -1.34335485      -1.36132272      -1.37382004       0.00000000
Si       1.37859012       1.35003375      -1.37039346       0.00000000
Si       1.26855117      -1.44616104       1.38272916       0.00000000
Si      -1.37953494       1.43752734       1.48689729       0.00000000
Si       2.80430721      -0.02572191       2.58008016       0.00000000
Si      -2.69672805       2.71526607      -0.01812663       0.00000000
Si      -2.69571807      -2.71656927       0.02316370       0.00000000
Si      -2.69729820      -0.00848709      -2.73633235       0.00000000
Si       0.01760949       2.70914103      -2.73581837       0.00000000
Si       2.73386925       2.71951776       0.02405461       0.00000000
