10
Lattice="16.28999089631971 0.0 0.0 0.0 16.28999089631971 0.0 0.0 0.0 34.26581377546328" Properties=species:S:1:pos:R:3:initial_magmoms:R:1 pbc="T T T"
Si      -0.02433726       2.32797132       0.15306548       0.00000000
Si       0.48913983      -0.59875524       2.26363519       0.00000000
Si       1.83958083      -0.46540530      -1.47356788       0.00000000
Si      -2.35616931      -0.64972665      -0.26370985       0.00000000
Si      -1.41294573       0.58829706       3.04424513       0.00000000
Si      -0.70933176       2.78462889       2.34111024       0.00000000
Si      -2.13258906      -2.75659380      -1.29881213       0.00000000
Si       0.98412777       0.34608105      -3.57351518       0.00000000
Si       2.20752306      -2.81413008      -1.09856260       0.00000000
Si      -3.11207418      -0.56889567       2.00609319       0.00000000
