10
Lattice="16.28999089631971 0.0 0.0 0.0 16.28999089631971 0.0 0.0 0.0 34.26581377546328" Properties=species:S:1:pos:R:3:initial_magmoms:R:1 pbc="T T T"
Si      -1.93538232      -0.77131521       1.22803746       0.00000000
Si      -0.44263188      -0.02567304      -2.37924811       0.00000000
Si       1.81156203      -1.72367748      -0.06198689       0.00000000
Si       0.74308464       2.00393064       1.30398768       0.00000000
Si      -0.68119893      -1.98237897       2.79059371       0.00000000
Si       2.02514022       0.73676412       2.79877296       0.00000000
Si      -0.64050651       2.34339795      -2.62812085       0.00000000
Si       0.77789637      -3.21836969       1.37795734       0.00000000
Si       3.35147202      -0.53851482       1.30618070       0.00000000
Si      -2.70433548      -2.47585194      -0.25856998       0.00000000
