10
Lattice="16.28999089631971 0.0 0.0 0.0 16.28999089631971 0.0 0.0 0.0 34.26581377546328" Properties=species:S:1:pos:R:3:initial_magmoms:R:1 pbc="T T T"
Si      -1.35905841      -1.35384561      -1.35582362       0.00000000
Si      -1.35423657       1.35575154       1.35970252       0.00000000
Si       1.35995436      -1.35738054       1.35980531       0.00000000
Si       1.37596743       1.36749663      -1.36409540       0.00000000
Si       0.03148857      -2.70114264      -2.67617526       0.00000000
Si      -2.71194291       2.71451673      -0.00023986       0.00000000
Si      -2.71047681      -2.71603170       0.00106224       0.00000000
Si       2.71498914       2.71349046       0.00078811       0.00000000
Si      -2.71202436      -0.00164529       2.71704069       0.00000000
Si       0.00311139       2.71472850       2.71700642       0.00000000
