10
Lattice="16.28999089631971 0.0 0.0 0.0 16.28999089631971 0.0 0.0 0.0 34.26581377546328" Properties=species:S:1:pos:R:3:initial_magmoms:R:1 pbc="T T T"
Si      -1.35509994       1.35679410      -1.35908573       0.00000000
Si      -1.35705474      -1.35788553       1.35750950       0.00000000
Si       1.35785295       1.35690813       1.35771510       0.00000000
Si       1.36011726      -1.36088289      -1.36350602       0.00000000
Si      -2.71360449      -0.00078192       2.71460782       0.00000000
Si       0.00074934       2.71402803       2.71440222       0.00000000
Si      -2.71596654       2.71329498      -0.00034266       0.00000000
Si       0.00024435      -2.71536381       2.71491621       0.00000000
Si      -2.71497285      -2.71554300      -0.00054825       0.00000000
Si       2.71568961      -0.00037467       2.71505327       0.00000000
