10
Lattice="16.28999089631971 0.0 0.0 0.0 16.28999089631971 0.0 0.0 0.0 34.26581377546328" Properties=species:S:1:pos:R:3:initial_magmoms:R:1 pbc="T T T"
Si      -1.35773892      -1.34931699      -1.36905709       0.00000000
Si      -1.30303710       1.31952258       1.45002725       0.00000000
Si       1.35373158       1.36562328      -1.36744659       0.00000000
Si       1.22140791      -1.29731931       1.60346965       0.00000000
Si       0.47879568       2.35875942       2.68150702       0.00000000
Si       2.10751875       0.59116410       2.98044215       0.00000000
Si      -2.36714877      -0.50134104       2.81322488       0.00000000
Si      -0.64068570      -2.28867984       2.97979110       0.00000000
Si       2.71272483      -2.69389359       0.03430010       0.00000000
Si      -2.71787247      -2.69814528      -0.00788114       0.00000000
