10
Lattice="16.28999089631971 0.0 0.0 0.0 16.28999089631971 0.0 0.0 0.0 34.26581377546328" Properties=species:S:1:pos:R:3:initial_magmoms:R:1 pbc="T T T"
Si      -1.83611106      -1.40590845       0.44192645       0.00000000
Si       0.09026289       2.18230614       0.92538308       0.00000000
Si      -0.22871160      -0.12100212      -2.39888243       0.00000000
Si       2.18628090      -0.78991839       0.73527624       0.00000000
Si       3.37497849       1.00652652      -0.12811995       0.00000000
Si       2.40999147      -2.54378124      -0.71759507       0.00000000
Si       1.34804637      -1.84065597      -2.76583524       0.00000000
Si       2.36193597       2.75248872       1.06330306       0.00000000
Si      -2.72199384      -0.64904247       2.58501444       0.00000000
Si      -0.99137682      -3.64314447       0.64005149       0.00000000
