10
Lattice="16.28999089631971 0.0 0.0 0.0 16.28999089631971 0.0 0.0 0.0 34.26581377546328" Properties=species:S:1:pos:R:3:initial_magmoms:R:1 pbc="T T T"
Si       1.33902171       1.34599383       1.36488351       0.00000000
Si      -1.37596743      -1.36749663       1.36409540       0.00000000
Si      -1.28006820       1.38737043      -1.44417465       0.00000000
Si       1.42420212      -1.28774079      -1.42028794       0.00000000
Si      -1.98132012      -0.72146781      -2.60128488       0.00000000
Si      -0.21883986      -2.45926872      -2.53786842       0.00000000
Si       2.71104696       2.69851995      -0.02415399       0.00000000
Si      -2.72754873       2.68756934      -0.01007073       0.00000000
Si       2.69996976      -0.01106091       2.72328392       0.00000000
Si      -0.01457955       2.70486492       2.72431190       0.00000000
