10
Lattice="16.28999089631971 0.0 0.0 0.0 16.28999089631971 0.0 0.0 0.0 34.26581377546328" Properties=species:S:1:pos:R:3:initial_magmoms:R:1 pbc="T T T"
Si      -1.99935315      -0.93605598      -0.75634973       0.00000000
Si       0.04875597       2.35651140       0.04320922       0.00000000
Si       1.74708621      -0.54317376      -1.55179678       0.00000000
Si       0.73173051      -0.21494655       2.29670172       0.00000000
Si       2.36959227       2.31580269       0.59423807       0.00000000
Si      -1.16136297      -3.21325137      -0.93638242       0.00000000
Si       2.90502828       0.55231245       2.11625784       0.00000000
Si       3.09384567       1.38372147      -1.42545865       0.00000000
Si      -3.73679568      -0.24384501       0.71200974       0.00000000
Si       2.76822486      -2.54233143      -0.74199235       0.00000000
