10
Lattice="16.28999089631971 0.0 0.0 0.0 16.28999089631971 0.0 0.0 0.0 34.26581377546328" Properties=species:S:1:pos:R:3:initial_magmoms:R:1 pbc="T T T"
Si       1.03366566       1.49469221      -1.43994423       0.00000000
Si      -1.45909530       1.23599072       1.41263637       0.00000000
Si       1.25903781      -1.47814224       1.38545672       0.00000000
Si      -1.64081025      -0.88886548      -1.55761310       0.00000000
Si      -0.77789637       3.21836969      -1.37795734       0.00000000
Si      -2.71327869       2.44705448      -0.14991987       0.00000000
Si       2.57357565       2.67985487      -0.07177664       0.00000000
Si       2.60310942      -0.11380683       2.77346624       0.00000000
Si      -0.11207520       2.60106014       2.77809212       0.00000000
Si      -0.27171720      -1.04241339      -3.66431077       0.00000000
