10
Lattice="16.28999089631971 0.0 0.0 0.0 16.28999089631971 0.0 0.0 0.0 34.26581377546328" Properties=species:S:1:pos:R:3:initial_magmoms:R:1 pbc="T T T"
Si      -1.35705474       1.35518953       1.36059343       0.00000000
Si       1.35783311      -1.35955190       1.35953119       0.00000000
Si       1.35054918       1.35984847      -1.38307524       0.00000000
Si      -1.34407161      -1.36433541      -1.38800952       0.00000000
Si      -2.60310942       0.11380683      -2.77346624       0.00000000
Si      -2.71518462       2.71486696       0.00462589       0.00000000
Si       2.71885706       2.71239088      -0.00373498       0.00000000
Si       0.00162900       2.71410133       2.71772601       0.00000000
Si      -2.71386513      -0.00133578       2.71796587       0.00000000
Si      -2.71609686      -2.71686153       0.00102797       0.00000000
