10
Lattice="16.28999089631971 0.0 0.0 0.0 16.28999089631971 0.0 0.0 0.0 34.26581377546328" Properties=species:S:1:pos:R:3:initial_magmoms:R:1 pbc="T T T"
Si      -1.35681039      -1.35652532       1.35737244       0.00000000
Si       1.35705474      -1.35518953      -1.36059343       0.00000000
Si      -1.35812988       1.35967743      -1.35596754       0.00000000
Si       1.35868374       1.35891180       1.35713258       0.00000000
Si      -2.71264338      -2.71317997      -0.00013706       0.00000000
Si      -2.70514998      -0.00539199      -2.72142329       0.00000000
Si       0.00118917       2.71375110      -2.71324404       0.00000000
Si      -2.71235016       2.71541268       0.00027413       0.00000000
Si      -2.71353933       0.00071676       2.71429942       0.00000000
Si       0.00138465      -2.71460794       2.71457355       0.00000000
