10
Lattice="16.28999089631971 0.0 0.0 0.0 16.28999089631971 0.0 0.0 0.0 34.26581377546328" Properties=species:S:1:pos:R:3:initial_magmoms:R:1 pbc="T T T"
Si      -0.35054451       0.72884718       2.30413740       0.00000000
Si      -1.65592737      -1.80825842       0.07977086       0.00000000
Si      -0.48684294       2.03219379      -1.31292965       0.00000000
Si       1.93640859      -0.31745952      -2.60067392       0.00000000
Si      -2.60473842       2.42685162      -0.01312381       0.00000000
Si       1.47668850       3.18663351      -0.59403248       0.00000000
Si      -0.09330912      -3.57468479       0.23564613       0.00000000
Si      -2.53470771      -1.96386539      -2.09491023       0.00000000
Si      -2.16210654       2.45252466       2.36612430       0.00000000
Si      -1.38421017      -0.76584503       3.74408163       0.00000000
