10
Lattice="16.28999089631971 0.0 0.0 0.0 16.28999089631971 0.0 0.0 0.0 34.26581377546328" Properties=species:S:1:pos:R:3:initial_magmoms:R:1 pbc="T T T"
Si       1.28205558      -1.26716652       1.49478528       0.00000000
Si       1.74829167       0.95280210      -1.24412527       0.00000000
Si      -1.41648066       1.43210277       1.47255704       0.00000000
Si      -0.74308464      -2.00393064      -1.30398768       0.00000000
Si       2.60838738      -2.54244546       0.00219301       0.00000000
Si       0.61739100       1.51635465      -3.26872201       0.00000000
Si      -2.67846696      -2.77524585      -0.07595022       0.00000000
Si       2.71684620       2.74401792       0.00162420       0.00000000
Si      -0.07726347      -2.62124019       2.85206178       0.00000000
Si       2.63951757       0.09378153       2.85171912       0.00000000
