10
Lattice="16.28999089631971 0.0 0.0 0.0 16.28999089631971 0.0 0.0 0.0 34.26581377546328" Properties=species:S:1:pos:R:3:initial_magmoms:R:1 pbc="T T T"
Si       1.35361755      -1.35612621       1.35651579       0.00000000
Si       1.35633798       1.35863487      -1.35757803       0.00000000
Si      -1.35886293      -1.35659862      -1.35713258       0.00000000
Si      -1.35656604       1.35848826       1.36525358       0.00000000
Si       2.71037907      -0.01089801       2.71025606       0.00000000
Si       2.71339272      -2.71283397      -0.00065105       0.00000000
Si       2.71336014       0.00159642      -2.71429942       0.00000000
Si      -0.00213399      -2.71384070      -2.71405956       0.00000000
Si      -2.71520091      -2.71365662       0.00126784       0.00000000
Si       2.71327869       2.71627605       0.00065105       0.00000000
