10
Lattice="16.28999089631971 0.0 0.0 0.0 16.28999089631971 0.0 0.0 0.0 34.26581377546328" Properties=species:S:1:pos:R:3:initial_magmoms:R:1 pbc="T T T"
Si       1.27622376      -1.29455001       1.49226332       0.00000000
Si      -0.96855453      -1.79121582      -1.24574947       0.00000000
Si       1.81926135       0.64984068      -1.40892337       0.00000000
Si      -1.41986898       1.41778386       1.46096148       0.00000000
Si       2.48950689       2.56648950       0.05687100       0.00000000
Si       2.51657109      -2.67775020       0.03990942       0.00000000
Si      -2.71684620      -2.74401792      -0.00162420       0.00000000
Si       2.64008350       0.05809014       2.84677113       0.00000000
Si      -0.07732863      -2.65023639       2.85009492       0.00000000
Si       3.62907710      -0.86869683      -1.14691752       0.00000000
