10
Lattice="16.28999089631971 0.0 0.0 0.0 16.28999089631971 0.0 0.0 0.0 34.26581377546328" Properties=species:S:1:pos:R:3:initial_magmoms:R:1 pbc="T T T"
Si      -1.34933328      -1.34682462      -1.39547605       0.00000000
Si       1.36897902       1.36721970      -1.39506486       0.00000000
Si       1.40869829      -1.43024571       1.42449921       0.00000000
Si      -1.54680066       1.39815441       1.48658890       0.00000000
Si       2.64544291       0.10114461       2.73797711       0.00000000
Si      -2.70260874      -2.69563662       0.00274127       0.00000000
Si      -2.69832447       2.72608263      -0.04735538       0.00000000
Si       2.70999693       2.73709467      -0.02319797       0.00000000
Si       2.74035008      -2.71028133      -0.03567073       0.00000000
Si      -2.70172908       0.00812871      -2.75720025       0.00000000
