10
Lattice="16.28999089631971 0.0 0.0 0.0 16.28999089631971 0.0 0.0 0.0 34.26581377546328" Properties=species:S:1:pos:R:3:initial_magmoms:R:1 pbc="T T T"
Si      -1.49957595       1.42811172      -1.17973836       0.00000000
Si       1.29681988       1.57240854       1.35740671       0.00000000
Si       1.56391723      -1.39325112      -1.29942892       0.00000000
Si      -1.74136842      -1.40269932       1.82784233       0.00000000
Si       0.17684424       2.57513949      -2.53269051       0.00000000
Si       3.46138784       0.89575452       0.71557339       0.00000000
Si      -2.62832634      -0.09624132      -2.55081713       0.00000000
Si       0.52461360       0.95591349       3.61504537       0.00000000
Si      -2.46868434       3.00048768       0.44381107       0.00000000
Si       0.32717261      -2.92464144      -2.61290682       0.00000000
