10
Lattice="16.28999089631971 0.0 0.0 0.0 16.28999089631971 0.0 0.0 0.0 34.26581377546328" Properties=species:S:1:pos:R:3:initial_magmoms:R:1 pbc="T T T"
Si      -1.25695269      -0.84256767       1.76989880       0.00000000
Si      -0.66741759      -1.55734029      -1.68790066       0.00000000
Si       2.37043025      -0.14162526       0.29016307       0.00000000
Si      -0.59869008       2.31847425      -0.10440799       0.00000000
Si      -0.03730410      -0.30646377      -3.49271635       0.00000000
Si       3.09694796       0.26485911      -1.91614538       0.00000000
Si      -1.24237314      -3.18192570       1.64016836       0.00000000
Si       0.95378180      -3.63519495       0.69754956       0.00000000
Si      -3.50647137      -0.18342540       1.60319553       0.00000000
Si       2.84235155      -2.26916442       1.32882900       0.00000000
