10
Lattice="16.28999089631971 0.0 0.0 0.0 16.28999089631971 0.0 0.0 0.0 34.26581377546328" Properties=species:S:1:pos:R:3:initial_magmoms:R:1 pbc="T T T"
Si       1.13090067      -0.56355255       2.02459674       0.00000000
Si       1.82474064      -0.47975679      -1.50564070       0.00000000
Si      -2.00098215      -1.17688734      -0.66338653       0.00000000
Si      -1.01859741       2.19872646       0.36595910       0.00000000
Si       3.39942703       1.17911907      -0.57114290       0.00000000
Si      -0.61739100      -1.51635465       3.26872201       0.00000000
Si       2.27831940      -2.78617644      -0.99542245       0.00000000
Si      -2.49012198      -0.57813210      -2.92702171       0.00000000
Si      -3.90306771       0.01016496       0.11722341       0.00000000
Si      -3.19945374       2.20649679      -0.58591148       0.00000000
