10
Lattice="16.28999089631971 0.0 0.0 0.0 16.28999089631971 0.0 0.0 0.0 34.26581377546328" Properties=species:S:1:pos:R:3:initial_magmoms:R:1 pbc="T T T"
Si       1.15152381      -1.32792822       1.53394428       0.00000000
Si      -1.28661678       1.36940256       1.38320888       0.00000000
Si       1.35483930       1.35207000      -1.35322627       0.00000000
Si      -1.36327752      -1.36220238      -1.35165005       0.00000000
Si      -2.23821342      -0.36906624       2.69730357       0.00000000
Si       2.28027420       0.19642482       2.90502305       0.00000000
Si      -0.60949035      -2.13666156       2.99623870       0.00000000
Si       2.71826343       2.68964190       0.00500281       0.00000000
Si       2.70951570      -0.00270414      -2.70987913       0.00000000
Si      -0.00509877       2.71016730      -2.71039312       0.00000000
