10
Lattice="16.28999089631971 0.0 0.0 0.0 16.28999089631971 0.0 0.0 0.0 34.26581377546328" Properties=species:S:1:pos:R:3:initial_magmoms:R:1 pbc="T T T"
Si      -1.12875039      -1.52435304      -1.37107877       0.00000000
Si       1.49957595      -1.42811172       1.17973836       0.00000000
Si       1.67642019       1.14702777      -1.35295215       0.00000000
Si      -0.96910839       1.57237596       1.62354943       0.00000000
Si      -2.42681904       2.74836735      -0.09652685       0.00000000
Si      -2.28027420      -0.19642482      -2.90502305       0.00000000
Si      -2.88976455      -2.33308638       0.09121565       0.00000000
Si       2.79639583       0.14429682       2.53714507       0.00000000
Si       0.43798923       2.49321708      -2.90002024       0.00000000
Si      -3.56689098       1.17297774      -1.52181417       0.00000000
