10
Lattice="16.28999089631971 0.0 0.0 0.0 16.28999089631971 0.0 0.0 0.0 34.26581377546328" Properties=species:S:1:pos:R:3:initial_magmoms:R:1 pbc="T T T"
Si       2.35509417      -0.46099071       0.23321326       0.00000000
Si      -0.33084990       1.60567272       1.79669468       0.00000000
Si      -1.06756515      -2.20032288       0.17403617       0.00000000
Si      -2.43422284       1.50628743      -0.92884393       0.00000000
Si      -0.54327150       2.10285981      -2.28076811       0.00000000
Si      -2.58283326       2.15542764       1.47891335       0.00000000
Si       2.45229660      -1.51448130       2.37294320       0.00000000
Si       3.40205247       1.70245161       0.44422226       0.00000000
Si      -3.66405173       0.07802910       1.45047271       0.00000000
Si      -0.46631754       0.56505123       3.87488318       0.00000000
