10
Lattice="16.28999089631971 0.0 0.0 0.0 16.28999089631971 0.0 0.0 0.0 34.26581377546328" Properties=species:S:1:pos:R:3:initial_magmoms:R:1 pbc="T T T"
Si       2.16729181      -0.67732191       0.50326229       0.00000000
Si       0.95960171       1.39991373      -1.66953418       0.00000000
Si      -0.76102207      -2.30060412      -0.16934175       0.00000000
Si      -1.22074216       1.20348891       1.83729970       0.00000000
Si      -0.25816606       0.17415639      -3.21564283       0.00000000
Si      -3.18427360       0.04904919       1.11840252       0.00000000
Si       2.77223725      -1.65042135      -1.67398874       0.00000000
Si      -2.45933602      -0.60864327      -2.77392197       0.00000000
Si       3.62887948       1.18214901       0.67832643       0.00000000
Si       1.09999219      -1.72027287      -3.43275114       0.00000000
