10
Lattice="16.28999089631971 0.0 0.0 0.0 16.28999089631971 0.0 0.0 0.0 34.26581377546328" Properties=species:S:1:pos:R:3:initial_magmoms:R:1 pbc="T T T"
Si       1.39154067       1.23572682       1.35857174       0.00000000
Si       1.36803420      -1.33348311      -1.32235276       0.00000000
Si      -1.35247562       1.38468258      -1.29295267       0.00000000
Si      -1.41702963      -1.25126748       1.46822241       0.00000000
Si       0.48044097       1.03773816       3.48322471       0.00000000
Si      -2.69349353       0.01480761      -2.66481956       0.00000000
Si       0.02287116      -2.70609480      -2.66978811       0.00000000
Si       0.01896156       2.72951982      -2.66433984       0.00000000
Si       2.73416247      -2.67147855       0.02676162       0.00000000
Si       2.73857706       0.01322748      -2.66721817       0.00000000
