10
Lattice="16.28999089631971 0.0 0.0 0.0 16.28999089631971 0.0 0.0 0.0 34.26581377546328" Properties=species:S:1:pos:R:3:initial_magmoms:R:1 pbc="T T T"
Si      -0.75056664      -0.94760559       2.00914285       0.00000000
Si       1.40781438      -1.75715343      -0.70128454       0.00000000
Si      -2.02176493       0.51191325      -1.12052700       0.00000000
Si       1.47457080       1.75752810       0.59060590       0.00000000
Si      -2.29883570       2.55230091       0.17756555       0.00000000
Si      -3.24645758      -1.56123360      -0.71766360       0.00000000
Si       3.25086498       0.60650928       1.60980883       0.00000000
Si       3.58656930      -1.02296313      -0.09124991       0.00000000
Si      -2.97312767      -0.31294719       2.26898066       0.00000000
Si      -1.24955866       1.12840830      -3.37816567       0.00000000
