10
Lattice="16.28999089631971 0.0 0.0 0.0 16.28999089631971 0.0 0.0 0.0 34.26581377546328" Properties=species:S:1:pos:R:3:initial_magmoms:R:1 pbc="T T T"
Si      -1.40781438       1.75715343       0.70128454       0.00000000
Si       2.17875492       0.73419030       0.61003462       0.00000000
Si      -0.85458969      -2.22091344       0.22471533       0.00000000
Si       0.01459584      -0.01236411      -2.52381566       0.00000000
Si       2.52446130       1.33348311      -1.69845454       0.00000000
Si      -3.10657305      -1.67115852      -0.09306600       0.00000000
Si      -2.15838102       0.80954784       2.71042738       0.00000000
Si       3.15486801      -1.31235498       1.25546585       0.00000000
Si       0.06675642       3.51468153       1.29189043       0.00000000
Si       2.87831268      -2.12413455      -1.12775709       0.00000000
