10
Lattice="16.28999089631971 0.0 0.0 0.0 16.28999089631971 0.0 0.0 0.0 34.26581377546328" Properties=species:S:1:pos:R:3:initial_magmoms:R:1 pbc="T T T"
Si      -1.02126622       1.81850157      -1.00159030       0.00000000
Si       2.11723753      -0.22898853      -1.10568990       0.00000000
Si      -1.57468639      -1.65887586      -0.93449780       0.00000000
Si       0.51928952       0.69838488       2.43256575       0.00000000
Si      -3.39942703      -1.17911907       0.57114290       0.00000000
Si       3.32540167      -1.39417965       0.57467228       0.00000000
Si       2.32910527      -0.82015263       2.69457159       0.00000000
Si       0.37277564       3.68136081      -0.56322750       0.00000000
Si       3.42529195       1.62789228      -0.51241127       0.00000000
Si      -1.95417823       1.19387781      -3.08495294       0.00000000
