10
Lattice="16.28999089631971 0.0 0.0 0.0 16.28999089631971 0.0 0.0 0.0 34.24959146834617" Properties=species:S:1:pos:R:3:initial_magmoms:R:1 pbc="T T T"
Si      -2.15976567       0.95122264      -0.08103458       0.00000000
Si       1.81416843       1.06009848       1.12845617       0.00000000
Si       1.10620503      -0.05119947      -2.11265298       0.00000000
Si      -0.40638663      -1.95786252       1.31607554       0.00000000
Si      -0.88562214      -1.83000231      -2.45627932       0.00000000
Si       2.36853342      -0.46955925       2.81076279       0.00000000
Si       3.23208261      -0.93701709      -1.56075476       0.00000000
Si       0.33350517      -1.29738447       3.46208764       0.00000000
Si       0.55234503      -3.71711736       0.04164753       0.00000000
Si      -2.17502288       2.58796691      -1.80115277       0.00000000
