10
Lattice="16.28999089631971 0.0 0.0 0.0 16.28999089631971 0.0 0.0 0.0 34.24959146834617" Properties=species:S:1:pos:R:3:initial_magmoms:R:1 pbc="T T T"
Si      -0.53132183       0.30198402       2.28311329       0.00000000
Si      -0.41782940       1.85777676      -1.43433944       0.00000000
Si      -1.90683314      -1.25165844      -0.81472974       0.00000000
Si       2.21311053      -0.90127683      -0.49268065       0.00000000
Si       0.62536170       0.81059040      -3.34676920       0.00000000
Si       1.75506831      -1.23652503      -2.76733429       0.00000000
Si      -2.78378900       2.07560664      -1.37097766       0.00000000
Si      -2.09553650      -1.46023560       2.73322168       0.00000000
Si      -1.77494930       2.32622829       2.37339527       0.00000000
Si       1.53963306       0.34573896       3.54014250       0.00000000
