10
Lattice="16.28999089631971 0.0 0.0 0.0 16.28999089631971 0.0 0.0 0.0 34.24959146834617" Properties=species:S:1:pos:R:3:initial_magmoms:R:1 pbc="T T T"
Si      -1.35342207       1.35915615       1.36330575       0.00000000
Si       1.36337526      -1.35788553       1.36251801       0.00000000
Si      -1.37191122      -1.34157924      -1.37465950       0.00000000
Si       1.37881818       1.37404521      -1.37619045       0.00000000
Si       0.07074747      -2.58830018      -2.72581006       0.00000000
Si      -2.70894555       2.70876636       0.00520594       0.00000000
Si      -2.71083519      -2.71623207       0.00205498       0.00000000
Si      -2.71059084      -0.00087966       2.71928208       0.00000000
Si       2.71756296       2.71451673       0.00719242       0.00000000
Si       0.00407250       2.71454931       2.71969308       0.00000000
