10
Lattice="16.28999089631971 0.0 0.0 0.0 16.28999089631971 0.0 0.0 0.0 34.24959146834617" Properties=species:S:1:pos:R:3:initial_magmoms:R:1 pbc="T T T"
Si       1.35591444      -1.35285699      -1.35700382       0.00000000
Si      -1.35969372       1.35944334      -1.35645583       0.00000000
Si      -1.34042265      -1.37121582       1.36690196       0.00000000
Si       1.35741312       1.36285447       1.37159416       0.00000000
Si      -2.46615939       0.14118087       2.73013921       0.00000000
Si       2.71112841      -2.70978141       0.00582243       0.00000000
Si      -0.00211770      -2.71165476      -2.71356240       0.00000000
Si      -2.71585251      -2.70968367       0.00513744       0.00000000
Si       2.71254564       0.00266021      -2.71376790       0.00000000
Si       2.71503801       2.71319936       0.00229472       0.00000000
