10
Lattice="16.28999089631971 0.0 0.0 0.0 16.28999089631971 0.0 0.0 0.0 34.24959146834617" Properties=species:S:1:pos:R:3:initial_magmoms:R:1 pbc="T T T"
Si      -0.50249763       2.02446907       1.02221388       0.00000000
Si       0.55436499      -1.52965773       1.68230662       0.00000000
Si       1.97583039      -0.06290546      -1.25552223       0.00000000
Si      -1.81416843      -1.06009848      -1.12845617       0.00000000
Si      -0.70796340      -1.11129795      -3.24110915       0.00000000
Si      -1.48066326      -2.35748295       2.33363147       0.00000000
Si       1.41791418      -1.99711557      -2.68921093       0.00000000
Si      -2.54679489       1.52550637       2.10532356       0.00000000
Si       3.72358449       0.12822348       0.43130535       0.00000000
Si      -2.22055506      -3.01796100       0.18761937       0.00000000
