10
Lattice="16.28999089631971 0.0 0.0 0.0 16.28999089631971 0.0 0.0 0.0 34.24959146834617" Properties=species:S:1:pos:R:3:initial_magmoms:R:1 pbc="T T T"
Si      -1.33823979      -1.36705680      -1.37909482       0.00000000
Si       1.37531583       1.34842104      -1.37923182       0.00000000
Si       1.39253436      -1.35596331       1.38546525       0.00000000
Si      -1.40787954       1.40252013       1.48543986       0.00000000
Si      -2.69633709       2.71269225      -0.01438484       0.00000000
Si      -2.70164763      -2.71700910       0.00702117       0.00000000
Si      -2.69645112      -0.01037673      -2.74044834       0.00000000
Si       0.01874979       2.70529659      -2.74027710       0.00000000
Si       2.74822074       2.69920413      -0.01544657       0.00000000
Si       0.01873350      -2.72572425      -2.74055109       0.00000000
