10
Lattice="16.28999089631971 0.0 0.0 0.0 16.28999089631971 0.0 0.0 0.0 34.24959146834617" Properties=species:S:1:pos:R:3:initial_magmoms:R:1 pbc="T T T"
Si       0.49941882       2.26546659       0.62108244       0.00000000
Si      -2.40327999       0.00275301       0.45517732       0.00000000
Si       1.44075276      -0.67219056       1.86766552       0.00000000
Si       1.05357204      -1.26311031      -2.04894871       0.00000000
Si       1.06420941      -2.95156881       1.46636283       0.00000000
Si      -1.26957744      -3.32245953       0.36547759       0.00000000
Si      -1.68612903       3.15806085       0.07004045       0.00000000
Si      -2.76903936      -1.89436410       1.71121329       0.00000000
Si       2.29029255       2.95986042      -0.80839356       0.00000000
Si      -2.48472999       2.27126583      -2.13902518       0.00000000
