10
Lattice="16.28999089631971 0.0 0.0 0.0 16.28999089631971 0.0 0.0 0.0 34.24959146834617" Properties=species:S:1:pos:R:3:initial_magmoms:R:1 pbc="T T T"
Si       1.33149573      -1.85378571      -0.69170514       0.00000000
Si       0.42870393       1.19205333       2.02757695       0.00000000
Si       0.12566106       1.73236005      -1.65946213       0.00000000
Si      -2.24826435      -0.80356941       0.26526323       0.00000000
Si      -2.17394937       2.43468711      -1.53952000       0.00000000
Si      -3.23633430       0.27277605      -1.57695482       0.00000000
Si       0.09744678      -2.80629459      -2.48768622       0.00000000
Si      -3.12284187       0.05822046       2.26958470       0.00000000
Si      -0.33572061       3.47073111       1.80570797       0.00000000
Si       0.53137980       0.81567288      -3.80475499       0.00000000
