10
Lattice="16.28999089631971 0.0 0.0 0.0 16.28999089631971 0.0 0.0 0.0 34.24959146834617" Properties=species:S:1:pos:R:3:initial_magmoms:R:1 pbc="T T T"
Si       0.98166798      -1.13666733      -1.82824421       0.00000000
Si       1.23404895       0.95250888       1.79598108       0.00000000
Si      -1.82063556      -1.18286577       1.06379291       0.00000000
Si      -0.81674802       1.64911815      -1.58048253       0.00000000
Si      -3.43368765      -0.51276033      -0.52371080       0.00000000
Si       3.27896523       1.51521435       0.72177629       0.00000000
Si      -3.05810541       1.80139707      -1.05077805       0.00000000
Si       1.17874440      -0.81565659       3.41519992       0.00000000
Si      -0.09744678       2.80629459       2.48768622       0.00000000
Si       2.53285065       2.42383797      -1.38419801       0.00000000
