10
Lattice="16.28999089631971 0.0 0.0 0.0 16.28999089631971 0.0 0.0 0.0 34.24959146834617" Properties=species:S:1:pos:R:3:initial_magmoms:R:1 pbc="T T T"
Si       2.04491628       0.56270547      -1.07420479       0.00000000
Si      -1.23404895      -0.95250888      -1.79598108       0.00000000
Si      -1.33149573       1.85378571       0.69170514       0.00000000
Si      -0.05530455      -1.76816547       1.61921884       0.00000000
Si       3.35588661      -1.44143694      -0.71639911       0.00000000
Si       1.29880170       1.47132909      -3.18017909       0.00000000
Si      -3.05468451      -2.13537465      -0.73218818       0.00000000
Si       1.83716991      -1.45854144       3.03067954       0.00000000
Si      -3.57976008       1.05021630       0.95696837       0.00000000
Si      -1.20583467       3.58614576      -0.96775700       0.00000000
