10
Lattice="16.28999089631971 0.0 0.0 0.0 16.28999089631971 0.0 0.0 0.0 34.24959146834617" Properties=species:S:1:pos:R:3:initial_magmoms:R:1 pbc="T T T"
Si      -1.46632059       1.10775258       1.27977095       0.00000000
Si       0.64521269      -0.17164773      -2.27321516       0.00000000
Si       2.14677602       0.99364113       0.15391775       0.00000000
Si       0.01525721      -1.63674427       1.72011819       0.00000000
Si      -0.83336382      -2.10601209      -2.54025937       0.00000000
Si      -0.01524255       1.97951193       2.77346497       0.00000000
Si      -0.45389804      -0.20111634       3.55545208       0.00000000
Si       2.17502288      -2.58796691       1.80115277       0.00000000
Si       2.33497439       1.90120590       2.37918345       0.00000000
Si       3.64623794      -0.43445430      -1.19181795       0.00000000
