10
Lattice="16.28999089631971 0.0 0.0 0.0 16.28999089631971 0.0 0.0 0.0 34.24959146834617" Properties=species:S:1:pos:R:3:initial_magmoms:R:1 pbc="T T T"
Si       0.43865549       2.18062827      -0.78198711       0.00000000
Si       0.46915526      -1.43562793      -1.83533388       0.00000000
Si       1.89629446       0.19875429       1.47948043       0.00000000
Si      -2.32285530       0.27406296       0.61710948       0.00000000
Si      -1.01242254       1.30886892      -2.27568113       0.00000000
Si      -1.78152231      -0.28566144       2.83281954       0.00000000
Si       0.45389804       0.20111634      -3.55545208       0.00000000
Si       2.78887244       2.10232224      -1.17626863       0.00000000
Si      -0.27605686      -2.07576044       3.08976012       0.00000000
Si       2.00252155      -1.77431820       2.68739570       0.00000000
