10
Lattice="16.28999089631971 0.0 0.0 0.0 16.28999089631971 0.0 0.0 0.0 34.24959146834617" Properties=species:S:1:pos:R:3:initial_magmoms:R:1 pbc="T T T"
Si      -1.29194361       1.75493799       0.78572032       0.00000000
Si       2.23676361       0.79423524       0.15905519       0.00000000
Si      -0.17299980      -1.62548136       1.74214069       0.00000000
Si      -0.93675645      -0.23631903      -2.36675084       0.00000000
Si       2.05350111      -1.98122238       2.36651109       0.00000000
Si      -3.46747311       0.89611290       1.10650217       0.00000000
Si      -0.52626474       2.33916255       2.92779371       0.00000000
Si      -0.00832419      -3.72651669       0.68417022       0.00000000
Si      -0.78773553       3.67621317      -0.49590011       0.00000000
Si       0.03396465       1.51524693      -3.54021100       0.00000000
