10
Lattice="16.28999089631971 0.0 0.0 0.0 16.28999089631971 0.0 0.0 0.0 34.24959146834617" Properties=species:S:1:pos:R:3:initial_magmoms:R:1 pbc="T T T"
Si       1.07132814       1.65739347       1.34718929       0.00000000
Si      -1.57045374      -1.07660610       1.58026474       0.00000000
Si      -1.42840494       1.00216080      -1.82783322       0.00000000
Si       1.95558192      -1.64203200      -0.11552394       0.00000000
Si      -2.93290047      -2.25851076       0.01496708       0.00000000
Si       2.47989186       0.26352333       2.87688650       0.00000000
Si      -0.24175989      -2.47826286       2.90894414       0.00000000
Si      -0.47552139       0.12201210      -3.81687936       0.00000000
Si      -1.55559726      -3.13152444      -1.75495005       0.00000000
Si       1.88819019       3.60509103       0.05157991       0.00000000
