10
Lattice="16.28999089631971 0.0 0.0 0.0 16.28999089631971 0.0 0.0 0.0 34.24959146834617" Properties=species:S:1:pos:R:3:initial_magmoms:R:1 pbc="T T T"
Si       1.19474118       1.42830720      -1.46512984       0.00000000
Si      -0.95288355       0.88014870       1.98904614       0.00000000
Si      -2.05397352       0.00539199      -1.20383956       0.00000000
Si       0.76442454      -2.27867778       0.22186898       0.00000000
Si       2.18186631      -0.15312600      -2.86706915       0.00000000
Si      -0.68483160       3.34511892       1.41820788       0.00000000
Si      -3.52587276      -1.28143656      -0.00890490       0.00000000
Si       0.47552139      -0.12201210       3.81687936       0.00000000
Si       0.46138167      -1.73837106      -3.46517010       0.00000000
Si      -1.64333520       3.46468752      -0.82401138       0.00000000
