10
Lattice="16.28999089631971 0.0 0.0 0.0 16.28999089631971 0.0 0.0 0.0 34.24959146834617" Properties=species:S:1:pos:R:3:initial_magmoms:R:1 pbc="T T T"
Si      -0.96063759       0.46526751      -2.07717145       0.00000000
Si      -1.74249243      -1.14324849       1.13958764       0.00000000
Si       1.10912094       1.73966679       1.19355817       0.00000000
Si       1.82047266      -1.82213424      -0.30225388       0.00000000
Si       1.20894606      -1.54140867      -2.74771033       0.00000000
Si       1.12923909       0.85435741      -3.14182060       0.00000000
Si       2.42606970       0.26036307       2.53787936       0.00000000
Si      -0.32604435      -2.47295232       2.54179409       0.00000000
Si      -1.22807052      -1.96009425      -2.75250527       0.00000000
Si      -0.33353775       2.98638773       2.54470874       0.00000000
