10
Lattice="16.28999089631971 0.0 0.0 0.0 16.28999089631971 0.0 0.0 0.0 34.24959146834617" Properties=species:S:1:pos:R:3:initial_magmoms:R:1 pbc="T T T"
Si       1.74760749       0.93884289      -1.26298864       0.00000000
Si      -0.81093249      -1.88087598      -1.22212886       0.00000000
Si       1.41801192      -0.51844554       1.92126616       0.00000000
Si      -1.62963531       1.90687223       0.06846497       0.00000000
Si       1.03879701      -2.55233349       0.90336773       0.00000000
Si      -2.21327343      -0.49980978      -2.82305840       0.00000000
Si       0.48456234       2.23426051      -2.81836621       0.00000000
Si      -3.33901017       1.01258691      -1.45982115       0.00000000
Si       2.67388947       2.79305801       0.10795477       0.00000000
Si      -1.90878075       0.49445037       3.39578039       0.00000000
