10
Lattice="16.28999089631971 0.0 0.0 0.0 16.28999089631971 0.0 0.0 0.0 34.24959146834617" Properties=species:S:1:pos:R:3:initial_magmoms:R:1 pbc="T T T"
Si      -1.35663120      -1.35551720       1.35676407       0.00000000
Si      -1.35744570       1.35774262      -1.35748332       0.00000000
Si       1.35749457       1.35876563       1.35645583       0.00000000
Si       1.35764118      -1.35716249      -1.35820256       0.00000000
Si      -2.71254564      -0.00266021       2.71376790       0.00000000
Si       0.00249237       2.71053915       2.71606262       0.00000000
Si      -2.71466334      -2.71431497       0.00020550       0.00000000
Si      -2.71443528       2.71459536      -0.00013700       0.00000000
Si       2.71507059      -2.71483625      -0.00037675       0.00000000
Si      -2.71588509       0.00046112      -2.71417889       0.00000000
