10
Lattice="16.28999089631971 0.0 0.0 0.0 16.28999089631971 0.0 0.0 0.0 34.24959146834617" Properties=species:S:1:pos:R:3:initial_magmoms:R:1 pbc="T T T"
Si       1.35511623       1.35790182       1.35755182       0.00000000
Si       1.35386190      -1.35938258      -1.35994929       0.00000000
Si      -1.35966114      -1.35743918       1.35758607       0.00000000
Si      -1.36337526       1.35788553      -1.36251801       0.00000000
Si       2.71371852      -2.71302067       0.00054799       0.00000000
Si       2.71272483       0.00034209       2.71513788       0.00000000
Si      -0.00162900       2.71458189       2.71486388       0.00000000
Si      -0.00221544      -2.71518180       2.71506938       0.00000000
Si       2.71287144       2.71761183       0.00030825       0.00000000
Si      -2.71665072      -0.00058644       2.71493238       0.00000000
