10
Lattice="16.28999089631971 0.0 0.0 0.0 16.28999089631971 0.0 0.0 0.0 34.24959146834617" Properties=species:S:1:pos:R:3:initial_magmoms:R:1 pbc="T T T"
Si      -1.35500220       1.35177352       1.35960679       0.00000000
Si       1.35744570       1.35675826      -1.35638733       0.00000000
Si      -1.35749457      -1.35876563      -1.35645583       0.00000000
Si       1.35340578      -1.35701573       1.36419624       0.00000000
Si      -2.71471221       2.71329172       0.00095899       0.00000000
Si      -0.00016290       2.71431799      -2.71397339       0.00000000
Si      -2.71412577      -2.71428282       0.00030825       0.00000000
Si      -2.71494027      -0.00102301      -2.71393914       0.00000000
Si       2.71467963       2.71436686      -0.00017125       0.00000000
Si       2.71555929      -0.00146773      -2.71438439       0.00000000
