10
Lattice="16.28999089631971 0.0 0.0 0.0 16.28999089631971 0.0 0.0 0.0 34.24959146834617" Properties=species:S:1:pos:R:3:initial_magmoms:R:1 pbc="T T T"
Si      -1.88107146      -0.86496642       1.27641449       0.00000000
Si       1.21456611       1.40558265       1.61572538       0.00000000
Si      -1.34464176       1.28559051      -1.63993986       0.00000000
Si       1.34829072      -1.41492496      -1.63332968       0.00000000
Si       2.59856451       2.65961943      -0.04356550       0.00000000
Si      -2.69868285       2.65786011      -0.25183739       0.00000000
Si      -2.80735344      -2.71918153      -0.09452893       0.00000000
Si       2.82444165      -2.71829291      -0.34376334       0.00000000
Si       0.00084708       2.64477924      -3.02091840       0.00000000
Si       2.71186146      -0.06292827      -3.01821269       0.00000000
