10
Lattice="16.28999089631971 0.0 0.0 0.0 16.28999089631971 0.0 0.0 0.0 34.24959146834617" Properties=species:S:1:pos:R:3:initial_magmoms:R:1 pbc="T T T"
Si       1.06165188      -1.89821084       0.93611036       0.00000000
Si       1.57022568       1.82546229      -0.06527976       0.00000000
Si      -1.38258117      -0.29228170      -2.02175451       0.00000000
Si      -1.89170883       0.93275400       1.63100071       0.00000000
Si      -0.05427828       3.26655714      -1.03950993       0.00000000
Si      -1.96918407       2.96993253       0.33588593       0.00000000
Si       3.26267523       1.28885340      -1.63103496       0.00000000
Si      -1.47237165      -2.62319729      -2.48319952       0.00000000
Si      -3.80109231      -0.37742953       0.83151205       0.00000000
Si      -3.64337253       0.26571434      -1.52951911       0.00000000
