10
Lattice="16.28999089631971 0.0 0.0 0.0 16.28999089631971 0.0 0.0 0.0 34.24959146834617" Properties=species:S:1:pos:R:3:initial_magmoms:R:1 pbc="T T T"
Si       1.35602847       1.35780408      -1.35717507       0.00000000
Si       1.35694071      -1.35843939       1.35741482       0.00000000
Si      -1.35858600      -1.35741312      -1.35714082       0.00000000
Si      -1.35980775       1.35902583       1.36179877       0.00000000
Si       2.71300176      -2.71404432      -0.00065074       0.00000000
Si       2.71337643       0.00029322      -2.71424739       0.00000000
Si       2.71199178       2.71621089       0.00089049       0.00000000
Si      -0.00184077      -2.71409319      -2.71445289       0.00000000
Si      -0.00159642       2.71511946      -2.71472689       0.00000000
Si      -2.71625976       0.00043983      -2.71482963       0.00000000
