10
Lattice="16.28999089631971 0.0 0.0 0.0 16.28999089631971 0.0 0.0 0.0 34.24959146834617" Properties=species:S:1:pos:R:3:initial_magmoms:R:1 pbc="T T T"
Si       1.36300059       1.33902171       1.36673071       0.00000000
Si       1.35606105      -1.35560493      -1.35806556       0.00000000
Si      -1.35694071       1.35843939      -1.35741482       0.00000000
Si      -1.34548884      -1.35918873       1.38097855       0.00000000
Si       2.71101438      -2.70770751       0.00270572       0.00000000
Si      -0.00117288      -2.71321353      -2.71428164       0.00000000
Si       2.71379997       0.00135207      -2.71438439       0.00000000
Si       2.71485882       2.71389771       0.00383596       0.00000000
Si      -2.71552671       0.00102627      -2.71455564       0.00000000
Si      -0.00091224       2.71624347      -2.71458989       0.00000000
