10
Lattice="16.28999089631971 0.0 0.0 0.0 16.28999089631971 0.0 0.0 0.0 34.24959146834617" Properties=species:S:1:pos:R:3:initial_magmoms:R:1 pbc="T T T"
Si      -1.30631139       1.39390272       1.30604040       0.00000000
Si       1.30157100       1.39763313      -1.45982115       0.00000000
Si      -1.46613258      -1.27169514      -1.45584820       0.00000000
Si       1.45415943      -0.77501304       1.90236037       0.00000000
Si       0.56000133       1.54626309       2.73020771       0.00000000
Si       2.44711638      -2.52397260       0.41171457       0.00000000
Si      -2.54303190      -2.82906801       0.06548526       0.00000000
Si       2.59639794       0.05424570      -2.85819850       0.00000000
Si      -0.11209149      -2.64396474      -2.84395067       0.00000000
Si       3.07861452       2.37894273      -0.05257315       0.00000000
