10
Lattice="16.28999089631971 0.0 0.0 0.0 16.28999089631971 0.0 0.0 0.0 34.24959146834617" Properties=species:S:1:pos:R:3:initial_magmoms:R:1 pbc="T T T"
Si       0.91096938      -2.12791383       0.01650831       0.00000000
Si       0.96902694       1.03174344       1.86588454       0.00000000
Si      -2.36620395      -0.34050987       0.23115062       0.00000000
Si       1.24380666       1.12262535      -1.84858848       0.00000000
Si      -0.15628626       3.00126960       1.29583402       0.00000000
Si      -0.66741759      -3.29309843      -1.27689398       0.00000000
Si       0.34964856       3.44390148      -1.02074114       0.00000000
Si       3.25628955       0.88148448       1.32676142       0.00000000
Si       0.43598556      -0.50666787       3.57476886       0.00000000
Si       0.86713299      -2.64396474       2.43394858       0.00000000
