10
Lattice="16.28999089631971 0.0 0.0 0.0 16.28999089631971 0.0 0.0 0.0 34.24959146834617" Properties=species:S:1:pos:R:3:initial_magmoms:R:1 pbc="T T T"
Si      -2.09637639       1.03478967      -0.07055420       0.00000000
Si       1.44231660       1.06784208      -1.53684853       0.00000000
Si       0.64599624       0.50264424       2.23971904       0.00000000
Si       0.11471418      -2.40494157      -0.16244590       0.00000000
Si       3.04289055      -0.00070047       1.51232581       0.00000000
Si       3.13659063       1.66050486      -0.07736987       0.00000000
Si      -3.67919424      -0.60292548       0.49429038       0.00000000
Si       2.17592046      -2.86964640      -1.19161245       0.00000000
Si      -2.48380146       1.88750601      -2.19622203       0.00000000
Si      -1.49623650       0.16131987       3.51013984       0.00000000
