10
Lattice="16.28999089631971 0.0 0.0 0.0 16.28999089631971 0.0 0.0 0.0 34.24959146834617" Properties=species:S:1:pos:R:3:initial_magmoms:R:1 pbc="T T T"
Si      -0.85734270      -2.19118419       0.12966903       0.00000000
Si      -1.12765896       1.20630708      -1.68994429       0.00000000
Si       1.61145567      -0.40483908      -1.70535661       0.00000000
Si       1.15132833       1.11094542       1.85060921       0.00000000
Si       1.01457378       1.54763145      -2.96036509       0.00000000
Si      -1.25353179      -2.47070430      -2.24201376       0.00000000
Si      -2.56450212      -0.46656189      -2.59981944       0.00000000
Si       3.44877219       0.81197505       1.15520512       0.00000000
Si       1.31175225      -0.55573335       3.48325390       0.00000000
Si       3.74200848      -0.49793643      -0.76705428       0.00000000
