10
Lattice="16.28999089631971 0.0 0.0 0.0 16.28999089631971 0.0 0.0 0.0 34.24959146834617" Properties=species:S:1:pos:R:3:initial_magmoms:R:1 pbc="T T T"
Si       1.28633985      -1.31070969       1.57883170       0.00000000
Si      -1.91681172      -0.49122495      -1.45270892       0.00000000
Si       2.03486535       0.75124593      -1.23018920       0.00000000
Si      -1.39250178       1.41433038       1.53970152       0.00000000
Si      -2.56419261      -2.44609011       0.11074954       0.00000000
Si       2.61500112      -2.59934643       0.16875468       0.00000000
Si       2.78511759       2.69565291       0.03489008       0.00000000
Si       2.66576076       0.04712697       2.93639379       0.00000000
Si      -2.80106550       2.80820052       0.01000431       0.00000000
Si      -0.04873968      -2.66947488       2.94320946       0.00000000
