10
Lattice="16.28999089631971 0.0 0.0 0.0 16.28999089631971 0.0 0.0 0.0 34.24959146834617" Properties=species:S:1:pos:R:3:initial_magmoms:R:1 pbc="T T T"
Si      -1.57468914      -1.53086904       0.70543923       0.00000000
Si       1.60577046      -0.55842120       1.56469346       0.00000000
Si      -1.11288393       2.06558829       0.25327587       0.00000000
Si       0.94392405      -0.69818940      -2.07734163       0.00000000
Si       3.38401944       0.74714085       0.65197559       0.00000000
Si       1.59990606      -2.96873847       1.07605427       0.00000000
Si       0.75021966       3.48205266       0.78695330       0.00000000
Si       1.04515011       0.36541728       3.72348067       0.00000000
Si      -2.31669864       2.44323936      -1.96219444       0.00000000
Si      -3.44100186      -1.68322941      -0.71872808       0.00000000
