10
Lattice="16.28999089631971 0.0 0.0 0.0 16.28999089631971 0.0 0.0 0.0 34.24959146834617" Properties=species:S:1:pos:R:3:initial_magmoms:R:1 pbc="T T T"
Si       1.57468914       1.53086904      -0.70543923       0.00000000
Si      -1.86631272      -0.15236037      -1.42416731       0.00000000
Si      -0.50593482      -0.44263188       2.31657516       0.00000000
Si       0.89415810      -2.32127613      -0.82784734       0.00000000
Si      -0.56000133      -1.54626309      -2.73020771       0.00000000
Si       3.18045960       0.97244784       0.85925423       0.00000000
Si       3.17459520      -1.43786943       0.37061504       0.00000000
Si      -0.34964856      -3.44390148       1.02074114       0.00000000
Si       0.46180521       3.59645733      -0.45216336       0.00000000
Si      -3.65718645      -0.84675420       0.00530869       0.00000000
