10
Lattice="16.28999089631971 0.0 0.0 0.0 16.28999089631971 0.0 0.0 0.0 34.24959146834617" Properties=species:S:1:pos:R:3:initial_magmoms:R:1 pbc="T T T"
Si       1.36655181       1.75417236      -0.46466447       0.00000000
Si       0.38742507      -0.85271634       2.12566783       0.00000000
Si      -2.22650091       0.35574102      -0.62437040       0.00000000
Si       0.31814370      -1.54997721      -1.72775586       0.00000000
Si      -2.06182530      -1.74529431      -1.68234087       0.00000000
Si       0.54722997       1.35270531       3.09948701       0.00000000
Si       0.18326250       2.77545762      -2.20745590       0.00000000
Si       1.70277741       2.72596860       1.64041935       0.00000000
Si       3.44391777       0.78894099      -1.02628958       0.00000000
Si      -2.05350111       1.98122238      -2.36651109       0.00000000
