10
Lattice="16.28999089631971 0.0 0.0 0.0 16.28999089631971 0.0 0.0 0.0 34.24959146834617" Properties=species:S:1:pos:R:3:initial_magmoms:R:1 pbc="T T T"
Si       1.15554744       1.37326329      -1.45906766       0.00000000
Si      -1.94787675       1.18073178       0.53723939       0.00000000
Si       1.08271485       0.48221658       2.05035294       0.00000000
Si      -0.15980490      -2.20542165      -0.97381918       0.00000000
Si      -0.39444606      -0.94934862       3.22055938       0.00000000
Si      -0.54722997      -1.35270531      -3.09948701       0.00000000
Si      -2.52677448      -0.14307507       2.40154845       0.00000000
Si       0.81932184       0.40146705      -3.56415148       0.00000000
Si       0.46048572       3.59437221      -1.03026254       0.00000000
Si      -1.24833528       3.48395859       0.71174116       0.00000000
