10
Lattice="16.28999089631971 0.0 0.0 0.0 16.28999089631971 0.0 0.0 0.0 34.24959146834617" Properties=species:S:1:pos:R:3:initial_magmoms:R:1 pbc="T T T"
Si      -2.10359286      -0.00812871      -1.10170722       0.00000000
Si       1.41095835       1.69406226      -0.97875112       0.00000000
Si       0.81161667      -2.27625057      -0.52425879       0.00000000
Si      -0.23356602       0.38648025       2.52080559       0.00000000
Si       1.47497805      -1.29987684       2.72872680       0.00000000
Si      -2.32503912       2.37141675      -0.79154275       0.00000000
Si      -0.28896831       3.29382171      -1.40300105       0.00000000
Si       2.62501947       1.01561634      -2.88662568       0.00000000
Si      -3.74544567      -1.55216007       0.01698781       0.00000000
Si      -2.30215167      -0.05134608      -3.45112776       0.00000000
