10
Lattice="16.28999089631971 0.0 0.0 0.0 16.28999089631971 0.0 0.0 0.0 34.24959146834617" Properties=species:S:1:pos:R:3:initial_magmoms:R:1 pbc="T T T"
Si       1.32954093       1.35033579       1.38405759       0.00000000
Si      -1.38364002      -1.36386396       1.37912565       0.00000000
Si      -1.31694876       1.47930372      -1.34432119       0.00000000
Si       1.48527333      -1.35452979      -1.60489908       0.00000000
Si      -2.42606970      -0.26036307      -2.53787936       0.00000000
Si      -0.60559704      -2.08249731      -2.84013324       0.00000000
Si       2.69731449       2.70468476      -0.00940494       0.00000000
Si       2.68763823      -2.73921237      -0.01071328       0.00000000
Si       2.68939755      -0.00330231       2.74455487       0.00000000
Si      -0.02432097       2.70971837       2.74400688       0.00000000
