10
Lattice="16.28999089631971 0.0 0.0 0.0 16.28999089631971 0.0 0.0 0.0 34.24959146834617" Properties=species:S:1:pos:R:3:initial_magmoms:R:1 pbc="T T T"
Si       1.56364452      -1.54755000       0.90388147       0.00000000
Si      -0.40242816       0.90206594       2.16693861       0.00000000
Si      -1.82034234      -1.60663383       0.19275681       0.00000000
Si       0.63125379       1.52136287      -1.85687689       0.00000000
Si       0.67826673      -1.11597903       3.13315438       0.00000000
Si       2.43683739       2.70165482      -0.80671533       0.00000000
Si      -3.24180774      -1.13464737      -1.58918193       0.00000000
Si       1.16434404      -3.60689922      -0.03712658       0.00000000
Si      -1.48649508       2.54106800      -2.46610896       0.00000000
Si       1.38623013       0.12553074      -3.65350871       0.00000000
