10
Lattice="16.28999089631971 0.0 0.0 0.0 16.28999089631971 0.0 0.0 0.0 34.24959146834617" Properties=species:S:1:pos:R:3:initial_magmoms:R:1 pbc="T T T"
Si      -2.01297159       1.22139162       0.04644247       0.00000000
Si       0.31320783      -0.30664296       2.33232998       0.00000000
Si       1.65356532       1.38256488      -1.02622108       0.00000000
Si      -0.22281462      -2.22024555      -0.88600318       0.00000000
Si      -2.55386475       0.78149646      -2.22461496       0.00000000
Si      -1.72286298      -1.22904792       2.94378828       0.00000000
Si      -3.23325549       0.13007565       1.82173679       0.00000000
Si       3.54778281       1.20161556       0.48887894       0.00000000
Si       1.92018375      -3.17268927      -1.03855094       0.00000000
Si       2.01313449      -1.90640241       2.75657991       0.00000000
