10
Lattice="16.28999089631971 0.0 0.0 0.0 16.28999089631971 0.0 0.0 0.0 34.24959146834617" Properties=species:S:1:pos:R:3:initial_magmoms:R:1 pbc="T T T"
Si       2.01297159      -1.22139162      -0.04644247       0.00000000
Si      -0.54089316      -0.43989516      -2.27105743       0.00000000
Si       0.08979048       2.33091559       0.46144500       0.00000000
Si      -1.22028390      -1.09131597       1.77529432       0.00000000
Si       2.32617942      -1.52803458       2.28588751       0.00000000
Si      -3.29903451       1.43746218      -0.67732030       0.00000000
Si      -2.14586541       1.24445826      -2.73500266       0.00000000
Si      -2.17100088       2.88891162       0.95368041       0.00000000
Si       0.53763516       3.37456214      -1.65048874       0.00000000
Si       0.29010861      -2.45043954       2.89734581       0.00000000
