10
Lattice="16.28999089631971 0.0 0.0 0.0 16.28999089631971 0.0 0.0 0.0 34.24959146834617" Properties=species:S:1:pos:R:3:initial_magmoms:R:1 pbc="T T T"
Si      -1.23336477       1.41032304      -1.38981495       0.00000000
Si       1.51080532      -1.31287463      -1.38642424       0.00000000
Si       1.28551136       1.43733186       1.50280441       0.00000000
Si      -1.35923760      -1.43387349       1.61671862       0.00000000
Si       1.90807118      -0.59049621       2.85593803       0.00000000
Si      -2.45772117      -2.61273371      -0.09035047       0.00000000
Si       0.42949467      -2.52486057       2.58889382       0.00000000
Si      -2.57030136       0.04263093      -2.76479982       0.00000000
Si       0.15056847      -2.68306739      -2.76740279       0.00000000
Si      -2.68359831       2.76517863       0.20984736       0.00000000
