10
Lattice="16.28999089631971 0.0 0.0 0.0 16.28999089631971 0.0 0.0 0.0 34.24959146834617" Properties=species:S:1:pos:R:3:initial_magmoms:R:1 pbc="T T T"
Si      -2.23221870       0.05659146       0.02048127       0.00000000
Si       1.46632059      -1.10775258      -1.27977095       0.00000000
Si       1.45107803       0.87175935       1.49369402       0.00000000
Si       1.01242254      -1.30886892       2.27568113       0.00000000
Si      -0.16448013       2.61814509      -1.56856367       0.00000000
Si       1.48157780      -2.74449685       0.44034724       0.00000000
Si      -1.31043276      -1.03480596       2.89279061       0.00000000
Si       0.29061360       2.55658518       2.55964465       0.00000000
Si      -1.91560626       1.24266636       2.82764785       0.00000000
Si      -2.84460867       2.33005644       0.12620982       0.00000000
