10
Lattice="16.28999089631971 0.0 0.0 0.0 16.28999089631971 0.0 0.0 0.0 34.24959146834617" Properties=species:S:1:pos:R:3:initial_magmoms:R:1 pbc="T T T"
Si      -1.53090162      -1.60720398      -0.62070569       0.00000000
Si       1.84969692      -0.36733950      -1.37864958       0.00000000
Si       0.61830324       0.12562848       2.27033819       0.00000000
Si      -0.96000228       2.15474346      -0.42034547       0.00000000
Si       2.95599969       1.49436315      -0.49254365       0.00000000
Si       2.42668872       1.57022568       1.81262639       0.00000000
Si      -3.57910848      -0.41186007      -0.23231511       0.00000000
Si      -3.09483936       1.82381211       0.49018043       0.00000000
Si      -0.45020673      -3.62524895       0.34551007       0.00000000
Si       1.30836393       0.19238490      -3.59435963       0.00000000
