10
Lattice="16.28999089631971 0.0 0.0 0.0 16.28999089631971 0.0 0.0 0.0 34.24959146834617" Properties=species:S:1:pos:R:3:initial_magmoms:R:1 pbc="T T T"
Si      -0.91386900       2.14252596       0.67444333       0.00000000
Si      -1.45845999      -0.93401973      -1.70491137       0.00000000
Si       0.24283503      -1.27335672       2.08100634       0.00000000
Si       2.40831360       0.55190520      -0.21234759       0.00000000
Si       0.23398956      -1.47062862      -3.27066657       0.00000000
Si       1.32507747       0.36606888       3.48187505       0.00000000
Si      -2.97364176       1.95553305       1.71508350       0.00000000
Si       3.28201539       1.07170281       2.11672868       0.00000000
Si       1.22315094       3.51023436      -1.65360545       0.00000000
Si      -1.07429292       3.80920473      -0.95820136       0.00000000
