10
Lattice="16.28999089631971 0.0 0.0 0.0 16.28999089631971 0.0 0.0 0.0 34.24959146834617" Properties=species:S:1:pos:R:3:initial_magmoms:R:1 pbc="T T T"
Si       1.36018242       1.34816040       1.37699189       0.00000000
Si      -1.35231435      -1.37165058       1.37510817       0.00000000
Si       1.45790613      -1.33775109      -1.39673680       0.00000000
Si      -1.40651118       1.41752322      -1.39280494       0.00000000
Si       2.71630863       2.70484047      -0.00786714       0.00000000
Si      -2.70280422      -2.73004110      -0.01643639       0.00000000
Si       0.00395847       2.70402597       2.73642744       0.00000000
Si      -2.73517245       2.70615996       0.01727208       0.00000000
Si      -2.71156824      -0.00739566       2.73728368       0.00000000
Si       2.71832859      -0.01066995       2.73605069       0.00000000
