10
Lattice="16.28999089631971 0.0 0.0 0.0 16.28999089631971 0.0 0.0 0.0 34.24959146834617" Properties=species:S:1:pos:R:3:initial_magmoms:R:1 pbc="T T T"
Si      -1.35622395       1.35586557       1.35943554       0.00000000
Si       1.35814617      -1.35883035       1.35905880       0.00000000
Si      -1.36018242      -1.34816040      -1.37699189       0.00000000
Si       1.35612621       1.35668007      -1.38485903       0.00000000
Si       2.71644777       2.71223613      -0.00181523       0.00000000
Si      -2.71593396       2.71583622      -0.00215773       0.00000000
Si      -2.71428867      -0.00087966       2.71774085       0.00000000
Si      -2.71249677      -2.71981098      -0.00188373       0.00000000
Si       0.00047241       2.71480995       2.71767235       0.00000000
Si       0.00120546      -2.71619460       2.71760385       0.00000000
