10
Lattice="16.28999089631971 0.0 0.0 0.0 16.28999089631971 0.0 0.0 0.0 34.24959146834617" Properties=species:S:1:pos:R:3:initial_magmoms:R:1 pbc="T T T"
Si       1.35495333      -1.35210258       1.36077128       0.00000000
Si      -1.35606105       1.35560493       1.35806556       0.00000000
Si       1.35773892       1.35695700      -1.35631883       0.00000000
Si      -1.35723393      -1.35760860      -1.35621608       0.00000000
Si       0.00693954       2.69462664       2.72479627       0.00000000
Si      -2.71300176       2.71404432       0.00065074       0.00000000
Si       2.69188992       0.01558953       2.73575615       0.00000000
Si       0.00037467       2.71433754      -2.71359665       0.00000000
Si      -2.71484253      -0.00004887      -2.71380215       0.00000000
Si      -2.71467963      -2.71436686       0.00017125       0.00000000
