10
Lattice="16.28999089631971 0.0 0.0 0.0 16.28999089631971 0.0 0.0 0.0 34.24959146834617" Properties=species:S:1:pos:R:3:initial_magmoms:R:1 pbc="T T T"
Si       1.35615716       1.35726651      -1.35655858       0.00000000
Si       1.35366479      -1.35731538       1.36135352       0.00000000
Si      -1.35783265      -1.35822762      -1.35662708       0.00000000
Si      -1.35743362       1.35873261       1.35970954       0.00000000
Si       0.00144981       2.69242749       2.72637175       0.00000000
Si      -0.00014009       2.71399545      -2.71383640       0.00000000
Si       2.71422188       2.71414206       0.00123299       0.00000000
Si      -2.71530747       2.71360449       0.00041100       0.00000000
Si      -2.71532376      -0.00110772      -2.71373365       0.00000000
Si       2.71487348      -0.00107514      -2.71458989       0.00000000
