10
Lattice="16.28999089631971 0.0 0.0 0.0 16.28999089631971 0.0 0.0 0.0 34.24959146834617" Properties=species:S:1:pos:R:3:initial_magmoms:R:1 pbc="T T T"
Si       0.57511586       2.22589818      -0.08267856       0.00000000
Si       1.24876275      -0.93081060      -1.89972315       0.00000000
Si      -2.40831360      -0.55190520       0.21234759       0.00000000
Si       0.87370179       0.51979761       2.32907627       0.00000000
Si      -1.18516266       2.95832916      -1.44125786       0.00000000
Si      -0.36593856      -0.57793662      -3.51603078       0.00000000
Si      -2.16547857      -1.82526192       2.29335393       0.00000000
Si       2.55945941      -1.36590021       2.24886368       0.00000000
Si      -3.32218260       1.59062076       0.88679092       0.00000000
Si      -0.89192637       1.64841768      -3.36351726       0.00000000
