10
Lattice="16.28999089631971 0.0 0.0 0.0 16.28999089631971 0.0 0.0 0.0 34.24959146834617" Properties=species:S:1:pos:R:3:initial_magmoms:R:1 pbc="T T T"
Si       1.34140005       1.35239580       1.37245725       0.00000000
Si      -1.25472096       1.28673081      -1.53644438       0.00000000
Si      -1.37407779      -1.36179513       1.36505933       0.00000000
Si       1.43136972      -1.23773049      -1.44978259       0.00000000
Si      -2.00497320      -0.65767617      -2.80152366       0.00000000
Si      -0.29642913      -2.34403326      -2.59360245       0.00000000
Si       2.69926930       2.69474067       0.01147362       0.00000000
Si       2.69798238      -2.72095128      -0.01764197       0.00000000
Si      -2.73080673       2.69026092      -0.02751956       0.00000000
Si       2.69974119      -0.00457749       2.72785134       0.00000000
