10
Lattice="16.28999089631971 0.0 0.0 0.0 16.28999089631971 0.0 0.0 0.0 34.24959146834617" Properties=species:S:1:pos:R:3:initial_magmoms:R:1 pbc="T T T"
Si       1.35694071      -1.35669636      -1.35707232       0.00000000
Si      -1.35736425       1.35803214      -1.35724357       0.00000000
Si       1.35812988       1.35742941       1.35738057       0.00000000
Si      -1.35920502      -1.35646830       1.35813406       0.00000000
Si       2.71303434       0.00184077       2.71400764       0.00000000
Si       0.00107514       2.71464705      -2.71321990       0.00000000
Si      -2.71362078      -0.00107514       2.71448714       0.00000000
Si       2.71435332       0.00154755      -2.71411039       0.00000000
Si      -2.71523349       0.00135207      -2.71424739       0.00000000
Si       2.71512010      -2.71489140       0.00010275       0.00000000
