10
Lattice="16.28999089631971 0.0 0.0 0.0 16.28999089631971 0.0 0.0 0.0 34.24959146834617" Properties=species:S:1:pos:R:3:initial_magmoms:R:1 pbc="T T T"
Si       1.35653346      -1.35741312      -1.35854505       0.00000000
Si      -1.35903072       1.35782037      -1.35875055       0.00000000
Si       1.35664749       1.36565586       1.36751845       0.00000000
Si      -1.35623861      -1.37912769       1.36659371       0.00000000
Si      -2.73513077       0.01252701       2.64526868       0.00000000
Si      -0.09664857       2.62216872       2.77856816       0.00000000
Si       2.71099809       2.71450044       0.00106174       0.00000000
Si      -2.71512204      -2.71282257      -0.00006850       0.00000000
Si       2.71474479      -2.71409319       0.00280847       0.00000000
Si       2.71397916       0.00047241      -2.71623387       0.00000000
