10
Lattice="16.28999089631971 0.0 0.0 0.0 16.28999089631971 0.0 0.0 0.0 34.24959146834617" Properties=species:S:1:pos:R:3:initial_magmoms:R:1 pbc="T T T"
Si      -1.33424874       1.33775109      -1.41265944       0.00000000
Si      -1.87380612      -0.67561146       1.27189354       0.00000000
Si       1.34744431      -1.38668625      -1.37844408       0.00000000
Si       1.48199808       1.48416561       1.16520600       0.00000000
Si       2.21565896      -0.28497726       2.35236601       0.00000000
Si      -2.60380989       2.76388571      -0.08007559       0.00000000
Si       2.62088900      -2.82478374       0.02304999       0.00000000
Si       0.00447975       2.69355204      -2.75712790       0.00000000
Si      -2.73248460      -2.72947095       0.08141132       0.00000000
Si      -2.71300176      -0.01695789      -2.75322345       0.00000000
