10
Lattice="16.28999089631971 0.0 0.0 0.0 16.28999089631971 0.0 0.0 0.0 34.24959146834617" Properties=species:S:1:pos:R:3:initial_magmoms:R:1 pbc="T T T"
Si       1.21854087       2.02820274      -0.11740767       0.00000000
Si      -2.34949041       0.39596103      -0.14782132       0.00000000
Si       1.28454795      -1.68508647       1.15154041       0.00000000
Si       0.15324003      -0.74546298      -2.30318356       0.00000000
Si      -2.81248479      -1.87558173      -0.54782252       0.00000000
Si      -1.62919548      -2.89686699       1.19496891       0.00000000
Si      -0.31949577       1.27057113      -3.37225091       0.00000000
Si       3.42823050       1.20585096      -0.10422157       0.00000000
Si       3.46087566      -1.07388567       0.59851195       0.00000000
Si      -2.50325172       1.54585584      -2.33459046       0.00000000
