10
Lattice="16.28999089631971 0.0 0.0 0.0 16.28999089631971 0.0 0.0 0.0 34.24959146834617" Properties=species:S:1:pos:R:3:initial_magmoms:R:1 pbc="T T T"
Si       1.24362747      -2.02424427      -0.09028197       0.00000000
Si       1.90201130       1.25796267      -0.71307689       0.00000000
Si      -1.89421749       0.18094932      -1.51510002       0.00000000
Si      -0.69168969       0.56379690       2.30654003       0.00000000
Si       0.65650329       2.23781824       1.12783968       0.00000000
Si       1.77494930      -2.32622829      -2.37339527       0.00000000
Si      -3.54778281      -1.20161556      -0.48887894       0.00000000
Si      -0.32058720      -3.78646389       0.35982641       0.00000000
Si       0.03901455      -1.36886499       3.60151780       0.00000000
Si      -1.00883970      -0.25062165      -3.74437293       0.00000000
