10
Lattice="16.28999089631971 0.0 0.0 0.0 16.28999089631971 0.0 0.0 0.0 34.24959146834617" Properties=species:S:1:pos:R:3:initial_magmoms:R:1 pbc="T T T"
Si       0.53132183      -0.30198402      -2.28311329       0.00000000
Si      -1.24362747       2.02424427       0.09028197       0.00000000
Si      -1.56421467      -1.76221962       0.45010838       0.00000000
Si       2.07095489       0.04375494       1.25702921       0.00000000
Si       0.65838383       3.28220694      -0.62279492       0.00000000
Si      -0.13320333      -3.53406663       0.93182916       0.00000000
Si      -1.37551131      -1.55364246      -3.09784303       0.00000000
Si      -2.77827579      -1.08377370       2.35798294       0.00000000
Si       1.34018060       0.26573877       3.68721033       0.00000000
Si      -1.20461292       0.65537928       3.69179978       0.00000000
