10
Lattice="16.28999089631971 0.0 0.0 0.0 16.28999089631971 0.0 0.0 0.0 34.24959146834617" Properties=species:S:1:pos:R:3:initial_magmoms:R:1 pbc="T T T"
Si      -1.16060548       1.96913520      -0.04085979       0.00000000
Si      -1.89139022      -1.34943102      -0.29536864       0.00000000
Si       0.74631006      -1.01906982       1.99195735       0.00000000
Si       1.62491121       0.52799148      -1.69624622       0.00000000
Si       2.90120013      -1.30719105      -0.95357766       0.00000000
Si      -0.73092578      -3.03425685      -1.36131927       0.00000000
Si      -1.95391124       1.79875809      -2.24893218       0.00000000
Si       2.98766745      -1.17134874       1.46225288       0.00000000
Si       1.90983960       2.91486744      -1.04433913       0.00000000
Si       0.17322786       3.78783225       0.35201750       0.00000000
