10
Lattice="16.28999089631971 0.0 0.0 0.0 16.28999089631971 0.0 0.0 0.0 34.24959146834617" Properties=species:S:1:pos:R:3:initial_magmoms:R:1 pbc="T T T"
Si       2.24135739      -0.15227892      -0.52970448       0.00000000
Si      -0.27567567       1.27767357       1.96150945       0.00000000
Si      -0.74631006       1.01906982      -1.99195735       0.00000000
Si      -0.37558224      -2.31415740       0.52706726       0.00000000
Si      -2.63770028      -0.33036120      -2.28732599       0.00000000
Si       2.15489007      -0.28812123      -2.94553501       0.00000000
Si       3.05810541      -1.80139707       1.05077805       0.00000000
Si      -3.60493532      -0.90624528      -0.12141487       0.00000000
Si      -2.53937822       1.42386003       2.48309677       0.00000000
Si      -2.59111088      -2.61977409       1.14763595       0.00000000
