10
Lattice="16.28999089631971 0.0 0.0 0.0 16.28999089631971 0.0 0.0 0.0 34.24959146834617" Properties=species:S:1:pos:R:3:initial_magmoms:R:1 pbc="T T T"
Si       1.35653512       1.35767376       1.35751757       0.00000000
Si      -1.35743005      -1.35809730       1.35690107       0.00000000
Si       1.35773732      -1.35770634      -1.35734632       0.00000000
Si      -1.35817939       1.35819504      -1.35717507       0.00000000
Si       2.71403457      -2.71443528      -0.00006850       0.00000000
Si       0.00044379      -2.71296918       2.71619962       0.00000000
Si       2.71465359       2.71505430       0.00017125       0.00000000
Si      -2.71512010       2.71489140      -0.00010275       0.00000000
Si      -2.71487575      -0.00074934      -2.71541188       0.00000000
Si      -2.71557622      -2.71487511       0.00017125       0.00000000
