10
Lattice="16.28999089631971 0.0 0.0 0.0 16.28999089631971 0.0 0.0 0.0 34.24959146834617" Properties=species:S:1:pos:R:3:initial_magmoms:R:1 pbc="T T T"
Si       1.35435060       1.34884458      -1.36645671       0.00000000
Si      -1.35664749      -1.36565586      -1.36751845       0.00000000
Si       1.28845755      -1.31017212       1.49982470       0.00000000
Si      -1.45329606       1.25651286       1.41104971       0.00000000
Si      -0.52632990      -2.09165229       2.83110706       0.00000000
Si      -2.37399057      -0.52703037       2.65502981       0.00000000
Si      -0.15622110       2.60685612       2.79137751       0.00000000
Si       2.69633709      -2.71269225       0.01438484       0.00000000
Si      -2.72674075       2.69461035       0.00955564       0.00000000
Si       2.72091870       2.70993924       0.01167912       0.00000000
