10
Lattice="16.28999089631971 0.0 0.0 0.0 16.28999089631971 0.0 0.0 0.0 34.24959146834617" Properties=species:S:1:pos:R:3:initial_magmoms:R:1 pbc="T T T"
Si      -1.33383334      -1.81869705      -0.39287728       0.00000000
Si       0.45804222       0.33524820       2.27465364       0.00000000
Si       1.73661174      -0.87296481      -1.39635662       0.00000000
Si      -1.12970661       2.04711543      -0.57943491       0.00000000
Si       0.87972516       2.94256044      -1.36957343       0.00000000
Si       1.83845682       1.18330560      -2.64400144       0.00000000
Si      -1.75506831       1.23652503       2.76733429       0.00000000
Si       2.27121696       1.88994951       2.23105388       0.00000000
Si      -0.17322786      -3.78783225      -0.35201750       0.00000000
Si       3.71990295      -1.11772206      -0.15134903       0.00000000
