10
Lattice="16.28999089631971 0.0 0.0 0.0 16.28999089631971 0.0 0.0 0.0 34.24959146834617" Properties=species:S:1:pos:R:3:initial_magmoms:R:1 pbc="T T T"
Si      -0.45804222      -0.33524820      -2.27465364       0.00000000
Si       0.90174924      -1.70256564       1.36423049       0.00000000
Si       1.81317474       1.55470131      -0.04359975       0.00000000
Si      -2.21311053       0.90127683       0.49268065       0.00000000
Si       0.68600448      -0.66112965       3.50561889       0.00000000
Si      -1.58774883       1.71186723      -2.85408855       0.00000000
Si       1.16157474       3.26779029      -1.49821497       0.00000000
Si      -1.79187556      -2.15394525      -2.66753092       0.00000000
Si      -2.63093993       2.75905359      -0.94165879       0.00000000
Si       3.65208768       0.66080385      -1.42522905       0.00000000
