10
Lattice="16.28999089631971 0.0 0.0 0.0 16.28999089631971 0.0 0.0 0.0 34.24959146834617" Properties=species:S:1:pos:R:3:initial_magmoms:R:1 pbc="T T T"
Si      -0.73366088       1.76914287      -1.18716000       0.00000000
Si       1.70230500      -1.18946322      -0.94898821       0.00000000
Si       0.19051155       0.82477899       2.13193551       0.00000000
Si       0.24233004      -1.43035974       2.74781201       0.00000000
Si      -2.07590214       1.40773293       1.95339229       0.00000000
Si      -2.21565896       0.28497726      -2.35236601       0.00000000
Si       1.82612529      -2.53788426       1.11455083       0.00000000
Si       0.40523004      -2.53980648      -2.32931602       0.00000000
Si      -1.93225301       3.13673612       0.24680269       0.00000000
Si      -3.66502913      -0.47438109       1.23586295       0.00000000
