10
Lattice="16.28999089631971 0.0 0.0 0.0 16.28999089631971 0.0 0.0 0.0 34.24959146834617" Properties=species:S:1:pos:R:3:initial_magmoms:R:1 pbc="T T T"
Si       2.17552950       0.85882509      -0.32078185       0.00000000
Si      -1.38614868      -0.36802368      -1.88205035       0.00000000
Si      -0.95873166       1.75925484       1.27442801       0.00000000
Si      -0.10184508      -2.05627041       1.24764482       0.00000000
Si      -1.83845682      -1.18330560       2.64400144       0.00000000
Si      -1.43796717       1.88711505      -2.49792685       0.00000000
Si      -2.96816343       0.86380983       2.06456653       0.00000000
Si       2.94120837       1.44304965       1.82129154       0.00000000
Si       3.46747311      -0.89611290      -1.10650217       0.00000000
Si      -0.55234503       3.71711736      -0.04164753       0.00000000
