10
Lattice="16.28999089631971 0.0 0.0 0.0 16.28999089631971 0.0 0.0 0.0 34.48637585096406" Properties=species:S:1:pos:R:3:initial_magmoms:R:1 pbc="T T T"
Si      -1.35067788      -1.35312311      -1.38397352       0.00000000
Si       1.36016450       1.36518671      -1.38280099       0.00000000
Si       1.37287070      -1.33027349       1.50381375       0.00000000
Si      -1.55594817       1.21831607       1.43715154       0.00000000
Si       2.70669590      -2.67996957      -0.02214027       0.00000000
Si      -2.69773056      -2.73051744      -0.02320934       0.00000000
Si      -2.73045717       2.70358940      -0.01665693       0.00000000
Si       2.71808261       2.72126405       0.00189675       0.00000000
Si       0.00340461      -2.71022010      -2.74532397       0.00000000
Si      -2.71361331       0.00477297      -2.74553089       0.00000000
