10
Lattice="16.28999089631971 0.0 0.0 0.0 16.28999089631971 0.0 0.0 0.0 34.48637585096406" Properties=species:S:1:pos:R:3:initial_magmoms:R:1 pbc="T T T"
Si      -1.26135099       1.40797728      -1.33258879       0.00000000
Si      -1.29344229      -1.13673249       1.58775363       0.00000000
Si       1.48644621      -1.31916420      -1.30203385       0.00000000
Si       0.75272832       1.91712123       1.19457424       0.00000000
Si       0.72702270      -1.96084359       2.98672874       0.00000000
Si      -2.59465491       0.04759938      -2.68659364       0.00000000
Si      -2.64743451      -2.64200994       0.16936269       0.00000000
Si       1.33602435       1.12414032       3.34569762       0.00000000
Si      -2.32212321       0.58570695       2.91903194       0.00000000
Si       0.12181662      -2.67128307      -2.68014468       0.00000000
