10
Lattice="16.28999089631971 0.0 0.0 0.0 16.28999089631971 0.0 0.0 0.0 34.48637585096406" Properties=species:S:1:pos:R:3:initial_magmoms:R:1 pbc="T T T"
Si       0.73713879      -1.98433377      -0.97337850       0.00000000
Si      -2.17846170       0.83641005      -0.02303691       0.00000000
Si       1.33938009       0.17840808       1.91533990       0.00000000
Si       1.05314850       1.56139650      -1.46484412       0.00000000
Si      -1.65451014       2.80401399       1.34917675       0.00000000
Si       2.03791158       2.45667861       1.86430003       0.00000000
Si       3.17588211      -1.28010078       1.43866895       0.00000000
Si       3.35797173       1.00216080      -1.34596952       0.00000000
Si       3.37691700      -1.36700793      -1.00707171       0.00000000
Si      -2.82100446       1.21705848      -2.41370279       0.00000000
