10
Lattice="16.28999089631971 0.0 0.0 0.0 16.28999089631971 0.0 0.0 0.0 34.48637585096406" Properties=species:S:1:pos:R:3:initial_magmoms:R:1 pbc="T T T"
Si      -1.27946547      -1.11627225       1.65051887       0.00000000
Si       1.98925335       0.99522126       0.83977821       0.00000000
Si      -1.27736406       1.91891313      -0.60371883       0.00000000
Si       0.49472730      -2.11763484      -1.09283938       0.00000000
Si      -1.12951602       1.17530721      -2.87261325       0.00000000
Si      -2.25135945      -0.87615765      -2.31683051       0.00000000
Si      -0.81612900      -3.21864336       0.62116895       0.00000000
Si       2.77879707      -2.23648668      -0.34445011       0.00000000
Si      -0.14975397       3.52786014       0.74459576       0.00000000
Si       1.53634248       0.69730974       3.21399408       0.00000000
