10
Lattice="16.28999089631971 0.0 0.0 0.0 16.28999089631971 0.0 0.0 0.0 34.48637585096406" Properties=species:S:1:pos:R:3:initial_magmoms:R:1 pbc="T T T"
Si       1.12687704       1.66143339      -1.22519816       0.00000000
Si      -1.29399615       1.10845305       1.67814247       0.00000000
Si      -1.83687669      -1.26550494      -1.07638936       0.00000000
Si       1.55411487      -2.11253607       0.03765914       0.00000000
Si       2.29298040       0.09844047      -2.49691847       0.00000000
Si      -1.66314384      -1.03812912       2.83505757       0.00000000
Si      -0.45996444      -2.62168002      -2.48950389       0.00000000
Si       2.42476650       2.80562670       0.47553290       0.00000000
Si      -0.44623197       2.83317309      -2.47498512       0.00000000
Si      -2.92563839       2.44452627       0.29458279       0.00000000
