10
Lattice="16.28999089631971 0.0 0.0 0.0 16.28999089631971 0.0 0.0 0.0 34.48637585096406" Properties=species:S:1:pos:R:3:initial_magmoms:R:1 pbc="T T T"
Si       2.05429932       1.21419144      -0.29882461       0.00000000
Si      -2.01095163       1.01882547      -0.92871862       0.00000000
Si      -0.52395156      -1.96760394      -1.37221366       0.00000000
Si       0.41267457      -0.39506508       2.42635930       0.00000000
Si       1.65451014      -2.80401399      -1.34917675       0.00000000
Si      -2.65116492      -2.38281975      -0.26220006       0.00000000
Si       2.32637490       1.10719872      -2.61386183       0.00000000
Si       3.69242172      -0.34733538       0.51512328       0.00000000
Si      -1.67140287      -0.03026682       3.35500895       0.00000000
Si      -2.79901296      -1.63921383       2.00669436       0.00000000
