10
Lattice="16.28999089631971 0.0 0.0 0.0 16.28999089631971 0.0 0.0 0.0 34.48637585096406" Properties=species:S:1:pos:R:3:initial_magmoms:R:1 pbc="T T T"
Si      -0.82947051      -1.85808627      -1.16408137       0.00000000
Si       1.22140791      -1.48382352       1.40796916       0.00000000
Si      -1.51902621       1.21365387       1.38070421       0.00000000
Si       0.89542872       1.82151522      -1.37933307       0.00000000
Si       2.58781311       2.62541043      -0.01031833       0.00000000
Si      -0.14981913       2.57085522       2.76118771       0.00000000
Si       2.56761351      -0.15275133       2.76529159       0.00000000
Si      -0.57317994      -1.49464008      -3.43817086       0.00000000
Si      -2.85394284       2.54904291      -0.23357635       0.00000000
Si      -2.72751615      -2.73870738       0.02520266       0.00000000
