10
Lattice="16.28999089631971 0.0 0.0 0.0 16.28999089631971 0.0 0.0 0.0 34.48637585096406" Properties=species:S:1:pos:R:3:initial_magmoms:R:1 pbc="T T T"
Si      -1.16610336       1.56299292       1.27172031       0.00000000
Si       1.34553771       1.34622189      -1.34541773       0.00000000
Si       1.23365799      -1.36770840       1.43939316       0.00000000
Si      -1.37147139      -1.36857177      -1.34062412       0.00000000
Si      -2.29298040      -0.09844047       2.49691847       0.00000000
Si      -0.73886553      -2.21097654       2.53457761       0.00000000
Si       2.54959677      -0.00247608       2.82457371       0.00000000
Si       2.70285309      -0.00907353      -2.70145728       0.00000000
Si      -0.01140300       2.70319518      -2.70218149       0.00000000
Si       2.69180847       2.71917567       0.02479572       0.00000000
