10
Lattice="16.28999089631971 0.0 0.0 0.0 16.28999089631971 0.0 0.0 0.0 34.48637585096406" Properties=species:S:1:pos:R:3:initial_magmoms:R:1 pbc="T T T"
Si       1.31440752       1.45143576      -1.41852889       0.00000000
Si      -1.29788946      -1.14419331      -1.70073106       0.00000000
Si      -1.11884607       1.21479417       1.90540782       0.00000000
Si       1.16414856      -1.61370369       1.81691573       0.00000000
Si       0.61273206       0.60246936       3.31976385       0.00000000
Si       2.41781067      -2.70966231      -0.14787766       0.00000000
Si      -2.42476650      -2.80562670      -0.47553290       0.00000000
Si       2.56002237       0.01198944      -2.94765565       0.00000000
Si       2.92363146       2.59637092      -0.07900833       0.00000000
Si      -0.14537196       2.71790735      -2.92092869       0.00000000
