10
Lattice="16.28999089631971 0.0 0.0 0.0 16.28999089631971 0.0 0.0 0.0 34.48637585096406" Properties=species:S:1:pos:R:3:initial_magmoms:R:1 pbc="T T T"
Si      -1.73157813       0.61232481      -1.41435604       0.00000000
Si      -0.78089373      -0.78967404       2.06238989       0.00000000
Si       1.48483350       1.72242871       0.71393735       0.00000000
Si       0.55141650      -2.21617305      -1.50284813       0.00000000
Si      -0.61273206      -0.60246936      -3.31976385       0.00000000
Si      -3.48198750      -0.70263657      -0.41497479       0.00000000
Si       1.29293730      -1.24859592       3.11477672       0.00000000
Si       2.81354364      -2.28221271      -0.15663721       0.00000000
Si       1.63556487       2.96084501      -1.33934813       0.00000000
Si      -2.71305063      -2.00161746       1.48129413       0.00000000
