10
Lattice="16.28999089631971 0.0 0.0 0.0 16.28999089631971 0.0 0.0 0.0 34.48637585096406" Properties=species:S:1:pos:R:3:initial_magmoms:R:1 pbc="T T T"
Si       2.30580063      -0.46027395      -0.09842417       0.00000000
Si      -0.21579363       0.45626661       2.30358774       0.00000000
Si      -0.75852756       1.87162326      -1.28713573       0.00000000
Si      -1.69469757      -1.68627564      -0.30103174       0.00000000
Si      -2.73989655       2.40688008      -0.05024668       0.00000000
Si      -1.79115066       0.81256149      -3.13946898       0.00000000
Si      -2.50997949       0.24425226       2.71970058       0.00000000
Si       3.30761934       1.11838995       1.45849862       0.00000000
Si      -3.54721266      -0.98328069       0.97668920       0.00000000
Si      -2.48629383      -1.39895262      -2.52292121       0.00000000
