10
Lattice="16.28999089631971 0.0 0.0 0.0 16.28999089631971 0.0 0.0 0.0 34.48637585096406" Properties=species:S:1:pos:R:3:initial_magmoms:R:1 pbc="T T T"
Si      -1.35070164      -1.34903096      -1.36247470       0.00000000
Si      -1.35444834       1.35860229       1.35845359       0.00000000
Si       1.35887922      -1.35649140       1.36093661       0.00000000
Si       1.35988920       1.36223496      -1.36834429       0.00000000
Si       2.70790299      -2.70514088       0.00444874       0.00000000
Si      -2.71570590      -2.71103786      -0.00282788       0.00000000
Si       0.00115659      -2.71212929       2.71614848       0.00000000
Si      -2.71362078       0.00161923       2.71573464       0.00000000
Si      -2.71484253       2.71586880      -0.00434529       0.00000000
Si       2.71536381       0.00141071       2.71652783       0.00000000
