10
Lattice="16.28999089631971 0.0 0.0 0.0 16.28999089631971 0.0 0.0 0.0 34.48637585096406" Properties=species:S:1:pos:R:3:initial_magmoms:R:1 pbc="T T T"
Si       0.12137679      -1.92990141      -1.29268803       0.00000000
Si       1.00768311       0.18366486       2.25134085       0.00000000
Si      -2.19462138       0.83430538      -1.12760166       0.00000000
Si       2.75050134       0.65468370      -0.99489801       0.00000000
Si       1.51679448      -0.53661771      -2.61117189       0.00000000
Si       1.35607734       2.44151099       1.52743693       0.00000000
Si      -2.86995591       1.80124883       0.93182240       0.00000000
Si      -0.86473836       3.21196283       1.13711991       0.00000000
Si       0.08961129      -3.51555372       0.49056897       0.00000000
Si      -1.21011894       2.40446753      -2.53999197       0.00000000
