10
Lattice="16.28999089631971 0.0 0.0 0.0 16.28999089631971 0.0 0.0 0.0 34.48637585096406" Properties=species:S:1:pos:R:3:initial_magmoms:R:1 pbc="T T T"
Si      -1.35650088      -1.35690813      -1.35759143       0.00000000
Si       1.35874890       1.35804843      -1.35752246       0.00000000
Si      -1.35516510       1.35860229       1.36076418       0.00000000
Si       1.35819504      -1.35769005       1.36069521       0.00000000
Si      -2.71378368      -2.71454931      -0.00048281       0.00000000
Si      -2.71391400       0.00073305      -2.71483800       0.00000000
Si       0.00131949      -2.71414206      -2.71494146       0.00000000
Si      -2.71368594       2.71614573      -0.00010346       0.00000000
Si       2.71573848       0.00057015      -2.71490697       0.00000000
Si       0.00140094       2.71590138      -2.71480351       0.00000000
