10
Lattice="16.28999089631971 0.0 0.0 0.0 16.28999089631971 0.0 0.0 0.0 34.48637585096406" Properties=species:S:1:pos:R:3:initial_magmoms:R:1 pbc="T T T"
Si      -1.63512504      -1.09757133      -1.32431206       0.00000000
Si       1.07432550       1.61471367      -1.36955821       0.00000000
Si      -1.54877175       0.91808811       1.72621651       0.00000000
Si       1.73459178      -1.85016933       0.09797585       0.00000000
Si      -0.27645759      -2.42110125      -2.85426649       0.00000000
Si       2.45219886       0.30532347      -2.85274909       0.00000000
Si       2.43462195       2.92845330       0.10239011       0.00000000
Si      -3.11746617      -2.25311877       0.14453248       0.00000000
Si       1.42384374      -2.87652078       2.27513646       0.00000000
Si      -3.72602799      -0.35668584       1.44370396       0.00000000
