10
Lattice="16.28999089631971 0.0 0.0 0.0 16.28999089631971 0.0 0.0 0.0 34.48637585096406" Properties=species:S:1:pos:R:3:initial_magmoms:R:1 pbc="T T T"
Si      -0.73713879       1.98433377       0.97337850       0.00000000
Si      -0.72741366      -1.93052790       1.09670185       0.00000000
Si      -1.33214733      -0.76193217      -2.18216114       0.00000000
Si       2.63977821       0.61732584      -0.03369321       0.00000000
Si       0.68750316      -2.04571449      -2.50181553       0.00000000
Si       0.53677179      -3.28413079      -0.44853005       0.00000000
Si       2.43874332       0.70423299       2.41204745       0.00000000
Si       0.31600971       3.54573027      -0.49146562       0.00000000
Si       2.69272071      -0.63500049      -2.29651802       0.00000000
Si       0.60224130       2.16274185       2.88871840       0.00000000
