10
Lattice="16.28999089631971 0.0 0.0 0.0 16.28999089631971 0.0 0.0 0.0 34.48637585096406" Properties=species:S:1:pos:R:3:initial_magmoms:R:1 pbc="T T T"
Si      -0.28685061       0.05043384       2.28524097       0.00000000
Si       0.54377649      -2.24031483      -0.38786849       0.00000000
Si       1.89890901       1.31264820      -0.47236015       0.00000000
Si      -1.95470226       0.09570375      -1.31848386       0.00000000
Si      -2.45557089      -1.09709892       2.34893734       0.00000000
Si       1.98104319      -1.09165806       2.77439600       0.00000000
Si       2.47348989       0.55104183      -2.60789569       0.00000000
Si       2.40816699      -2.59300962       0.89916378       0.00000000
Si      -1.23400008       1.13471253      -3.27213814       0.00000000
Si       0.53194995      -2.47280571      -2.74535846       0.00000000
