10
Lattice="16.28999089631971 0.0 0.0 0.0 16.28999089631971 0.0 0.0 0.0 34.48637585096406" Properties=species:S:1:pos:R:3:initial_magmoms:R:1 pbc="T T T"
Si       1.87098795       0.87483816       1.14091341       0.00000000
Si      -0.07055199      -2.14900938       1.00345064       0.00000000
Si      -1.83650202       1.45850886       0.47667095       0.00000000
Si       0.20103489      -0.08690715      -2.44574066       0.00000000
Si      -2.43874332      -0.70423299      -2.41204745       0.00000000
Si      -2.55720420       0.41950008       2.43032524       0.00000000
Si       0.18208962       2.28226158      -2.78463846       0.00000000
Si      -3.17588211       1.28010078      -1.43866895       0.00000000
Si       2.74159071      -0.72207054      -2.43011832       0.00000000
Si       1.42915428      -3.45870420      -0.23402468       0.00000000
