10
Lattice="16.28999089631971 0.0 0.0 0.0 16.28999089631971 0.0 0.0 0.0 34.48637585096406" Properties=species:S:1:pos:R:3:initial_magmoms:R:1 pbc="T T T"
Si      -0.50329584      -2.19836808      -0.71897237       0.00000000
Si      -1.15527051       1.63851336      -1.30441341       0.00000000
Si       1.88750601       1.19765709       1.01507255       0.00000000
Si      -2.37550554      -0.49910931       1.00938230       0.00000000
Si      -0.51572511      -1.22359077      -2.88795970       0.00000000
Si       1.65299517      -0.07605801      -2.95165607       0.00000000
Si       1.06321572       2.18672073      -2.37383652       0.00000000
Si      -3.32353467       1.49915241       0.01924341       0.00000000
Si       0.91649169       3.15999936       1.86254123       0.00000000
Si       1.39571091      -3.61753659      -0.49939749       0.00000000
