10
Lattice="16.28999089631971 0.0 0.0 0.0 16.28999089631971 0.0 0.0 0.0 34.48637585096406" Properties=species:S:1:pos:R:3:initial_magmoms:R:1 pbc="T T T"
Si      -1.26952857       1.46528550      -1.26021909       0.00000000
Si      -1.38302100      -1.32597342       1.36663031       0.00000000
Si       1.32900336       1.39175244       1.36218157       0.00000000
Si       1.36954917      -1.37508777      -1.52267436       0.00000000
Si       2.70492192      -2.68990254      -0.01979864       0.00000000
Si      -2.72378574      -2.67729408      -0.00781462       0.00000000
Si      -0.02334357      -2.68053579       2.72318715       0.00000000
Si       2.69311167       0.03334563       2.72163527       0.00000000
Si      -2.73764853       0.03451851       2.72163527       0.00000000
Si       2.70343953       2.75897214      -0.02127466       0.00000000
