10
Lattice="16.28999089631971 0.0 0.0 0.0 16.28999089631971 0.0 0.0 0.0 34.48637585096406" Properties=species:S:1:pos:R:3:initial_magmoms:R:1 pbc="T T T"
Si      -1.35702216       1.34934957      -1.35672927       0.00000000
Si       1.35782037       1.35501849       1.35800527       0.00000000
Si       1.35351981      -1.35812988      -1.35959164       0.00000000
Si      -1.35700587      -1.35925389       1.35783284       0.00000000
Si      -2.70322776       0.01827738      -2.71405171       0.00000000
Si       2.71427238       2.71275741      -0.00179329       0.00000000
Si      -2.71248048       2.71476108      -0.00079319       0.00000000
Si       0.00017919       2.71309950       2.71518286       0.00000000
Si      -2.71313208      -2.71536381      -0.00013795       0.00000000
Si      -2.71507059      -0.00128691       2.71525183       0.00000000
