10
Lattice="16.28999089631971 0.0 0.0 0.0 16.28999089631971 0.0 0.0 0.0 34.48637585096406" Properties=species:S:1:pos:R:3:initial_magmoms:R:1 pbc="T T T"
Si      -1.34679204      -1.35457866      -1.38252509       0.00000000
Si       1.36894644       1.36034532      -1.38273201       0.00000000
Si       1.34244261      -1.38919491       1.47160345       0.00000000
Si      -1.45968174       1.36063854       1.39752668       0.00000000
Si      -2.69848737      -2.71891503      -0.00389696       0.00000000
Si       2.72031597      -2.69858511      -0.01158743       0.00000000
Si      -2.69333973       2.72834694      -0.04186648       0.00000000
Si       2.72551248       2.70938538      -0.01027695       0.00000000
Si      -2.70531288       0.00296478      -2.74339273       0.00000000
Si       0.00837306      -2.71318095      -2.74328927       0.00000000
