10
Lattice="16.28999089631971 0.0 0.0 0.0 16.28999089631971 0.0 0.0 0.0 34.48637585096406" Properties=species:S:1:pos:R:3:initial_magmoms:R:1 pbc="T T T"
Si       0.08039115       2.14979130      -0.97110240       0.00000000
Si      -0.33298389       0.32819463       2.32738335       0.00000000
Si      -1.82294874      -1.42179120      -0.58857931       0.00000000
Si       1.96141374      -1.20285360      -0.68079593       0.00000000
Si       1.30639284      -1.17144648       2.97507233       0.00000000
Si      -3.29652585      -1.22150565       1.18422832       0.00000000
Si       0.76175298      -3.17948220       1.78108436       0.00000000
Si      -1.21875264      -3.49065378       0.45542733       0.00000000
Si       1.47040056      -2.13783444      -2.80212306       0.00000000
Si       3.74165010       0.31951206      -0.78277220       0.00000000
