10
Lattice="16.28999089631971 0.0 0.0 0.0 16.28999089631971 0.0 0.0 0.0 34.48637585096406" Properties=species:S:1:pos:R:3:initial_magmoms:R:1 pbc="T T T"
Si      -1.34902377       1.34864948       1.35648787       0.00000000
Si       1.36647036       1.33886233      -1.35417038       0.00000000
Si       1.36511829      -1.36609569       1.35176323       0.00000000
Si      -1.33087671      -1.36133901      -1.39553681       0.00000000
Si       0.62376039      -2.17878750      -2.75818395       0.00000000
Si       2.42211123      -0.30828825      -2.63161543       0.00000000
Si      -2.70790299       2.70514088      -0.00444874       0.00000000
Si      -2.70674640      -0.00698841       2.71169973       0.00000000
Si       0.00746082       2.70655159       2.71207909       0.00000000
Si       2.72593602       2.70799814      -0.00203470       0.00000000
