10
Lattice="16.28999089631971 0.0 0.0 0.0 16.28999089631971 0.0 0.0 0.0 34.48637585096406" Properties=species:S:1:pos:R:3:initial_magmoms:R:1 pbc="T T T"
Si      -1.35765421      -1.35783666       1.35672927       0.00000000
Si       1.35762489      -1.35733167      -1.35769489       0.00000000
Si       1.35668007       1.35868374       1.35738451       0.00000000
Si      -1.35781060       1.35764118      -1.35779835       0.00000000
Si       0.00206883       2.71420722      -2.71470005       0.00000000
Si       2.71469592       0.00195480      -2.71473454       0.00000000
Si       2.71502172      -2.71459818      -0.00010346       0.00000000
Si      -2.71484517       2.71497285      -0.00006897       0.00000000
Si      -2.71481985      -2.71516833      -0.00013795       0.00000000
Si      -0.00149868       2.71782360       2.71221703       0.00000000
