10
Lattice="16.28999089631971 0.0 0.0 0.0 16.28999089631971 0.0 0.0 0.0 34.48637585096406" Properties=species:S:1:pos:R:3:initial_magmoms:R:1 pbc="T T T"
Si       0.13310559      -2.31381531       0.26830415       0.00000000
Si       0.47628702       1.21132440       1.98700263       0.00000000
Si       1.78158843      -0.07374483      -1.62396435       0.00000000
Si      -2.26212714       0.06603966      -1.34621092       0.00000000
Si       0.58580469      -2.16187848      -2.07790877       0.00000000
Si      -1.00846503      -1.02991896      -3.31100431       0.00000000
Si      -2.81354364       2.28221271       0.15663721       0.00000000
Si       1.85228703      -2.64267783       1.86116177       0.00000000
Si      -1.52060634       1.03361679       3.27141393       0.00000000
Si      -1.93075596      -3.10567221       1.02779803       0.00000000
