10
Lattice="16.28999089631971 0.0 0.0 0.0 16.28999089631971 0.0 0.0 0.0 34.48637585096406" Properties=species:S:1:pos:R:3:initial_magmoms:R:1 pbc="T T T"
Si       1.28270718      -1.42167432       1.36271611       0.00000000
Si      -1.43177697       1.30683919       1.34409346       0.00000000
Si       1.28283750       1.42143934      -1.44205003       0.00000000
Si      -1.56794508      -1.21474367      -1.42773818       0.00000000
Si       2.64217284      -0.05253851       2.71485179       0.00000000
Si       2.76566733       2.59542706      -0.09620670       0.00000000
Si      -0.07714944       2.66268847       2.71161007       0.00000000
Si      -2.75340096       2.67357019      -0.10804243       0.00000000
Si       2.33834805      -3.06882490       0.08527106       0.00000000
Si      -0.08376318      -2.76053665       2.71688649       0.00000000
