10
Lattice="16.28999089631971 0.0 0.0 0.0 16.28999089631971 0.0 0.0 0.0 34.48637585096406" Properties=species:S:1:pos:R:3:initial_magmoms:R:1 pbc="T T T"
Si      -1.99410777       1.07836542       0.67024309       0.00000000
Si       0.79183965      -1.49871095       1.65524351       0.00000000
Si      -0.92805759      -1.59093190      -1.55661242       0.00000000
Si       1.91088935       1.51382970      -0.52153775       0.00000000
Si       0.92455428      -0.93662776      -3.01887006       0.00000000
Si       2.65136759      -1.81243713      -1.59958247       0.00000000
Si       1.87234721      -3.12560207       0.30034202       0.00000000
Si      -2.56357359       2.38935204      -1.19567781       0.00000000
Si      -1.04153373      -2.04194240       3.07742796       0.00000000
Si      -1.64216232       2.49145776       2.51767928       0.00000000
