10
Lattice="16.28999089631971 0.0 0.0 0.0 16.28999089631971 0.0 0.0 0.0 34.48637585096406" Properties=species:S:1:pos:R:3:initial_magmoms:R:1 pbc="T T T"
Si       0.72112572      -1.94757931       1.07073360       0.00000000
Si      -1.49970627       1.30969482       1.23747532       0.00000000
Si       1.88190225       1.42564704      -0.33017275       0.00000000
Si      -1.12708881      -1.03238852      -1.83957329       0.00000000
Si       0.69724458      -0.90882725      -3.36031985       0.00000000
Si       1.31243643       2.73663366      -2.19609364       0.00000000
Si      -1.42915428       3.45870420       0.23402468       0.00000000
Si       0.62832159      -3.67668136      -0.59920112       0.00000000
Si      -3.63185550       0.45440466       0.98337956       0.00000000
Si      -0.53928045      -2.23107418       3.04335540       0.00000000
