10
Lattice="16.28999089631971 0.0 0.0 0.0 16.28999089631971 0.0 0.0 0.0 34.48637585096406" Properties=species:S:1:pos:R:3:initial_magmoms:R:1 pbc="T T T"
Si      -1.22673474       1.96454631       0.01886406       0.00000000
Si      -0.82784151      -0.84264423       2.04300853       0.00000000
Si      -0.73915875      -1.62721040      -1.57095876       0.00000000
Si       2.15488097      -0.33594053      -0.98537977       0.00000000
Si       1.09421463      -1.08397895      -2.99314321       0.00000000
Si      -0.28859364      -3.42802103      -0.09645845       0.00000000
Si       0.41039725      -2.78106368       2.09591066       0.00000000
Si      -3.07235916      -1.15425401       1.32955399       0.00000000
Si      -3.19712427       1.25694129       1.23402668       0.00000000
Si      -1.33978734       2.90618976      -2.13070744       0.00000000
