10
Lattice="16.28999089631971 0.0 0.0 0.0 16.28999089631971 0.0 0.0 0.0 34.48637585096406" Properties=species:S:1:pos:R:3:initial_magmoms:R:1 pbc="T T T"
Si       1.23823876      -1.93841945       0.05290213       0.00000000
Si       0.82784151       0.84264423      -2.04300853       0.00000000
Si      -2.24451765      -0.31160978      -0.71345454       0.00000000
Si       0.12707829       1.53111339       1.81274287       0.00000000
Si      -2.36928276       2.09958552      -0.80898186       0.00000000
Si       0.53924787      -2.58537680      -2.13946698       0.00000000
Si      -0.39889323       2.80719054      -2.02414448       0.00000000
Si       1.94160414       0.64791031       3.06984095       0.00000000
Si       0.08868276      -0.78456617      -3.61396729       0.00000000
Si       3.52671074      -1.46661218      -0.06135130       0.00000000
