10
Lattice="16.28999089631971 0.0 0.0 0.0 16.28999089631971 0.0 0.0 0.0 34.48637585096406" Properties=species:S:1:pos:R:3:initial_magmoms:R:1 pbc="T T T"
Si       1.20497130       1.36495539      -1.45999675       0.00000000
Si      -1.27384542      -1.35897696      -1.51051932       0.00000000
Si       1.33537275      -1.31481477       1.50287572       0.00000000
Si      -1.36954917       1.37508777       1.52267436       0.00000000
Si      -0.65796939       2.91848382      -2.10075397       0.00000000
Si       2.29060206      -0.83085516      -2.78606762       0.00000000
Si       2.61680931       2.65051332       0.06403089       0.00000000
Si      -2.71454931      -2.65206087       0.06596213       0.00000000
Si       0.28650852      -2.47044366      -2.87045583       0.00000000
Si      -2.63907774       2.84037327       0.26245526       0.00000000
