10
Lattice="16.28999089631971 0.0 0.0 0.0 16.28999089631971 0.0 0.0 0.0 34.48637585096406" Properties=species:S:1:pos:R:3:initial_magmoms:R:1 pbc="T T T"
Si      -1.35544203      -1.35843939       1.35655684       0.00000000
Si       1.35866812       1.35679410       1.35645338       0.00000000
Si      -1.35666378       1.35661491      -1.35879845       0.00000000
Si       1.35695767      -1.35858600      -1.36324720       0.00000000
Si      -2.71101438       2.71456560      -0.00113805       0.00000000
Si      -2.71358820      -0.00104256       2.71418276       0.00000000
Si       0.00163355       2.71412577       2.71418276       0.00000000
Si       0.00431685      -2.72802114      -2.70130898       0.00000000
Si      -2.71391400      -2.71573848       0.00027589       0.00000000
Si      -0.01703036       2.70801702      -2.72185598       0.00000000
