10
Lattice="16.28999089631971 0.0 0.0 0.0 16.28999089631971 0.0 0.0 0.0 34.48637585096406" Properties=species:S:1:pos:R:3:initial_magmoms:R:1 pbc="T T T"
Si       1.35544203       1.35843939      -1.35655684       0.00000000
Si      -1.35847197      -1.35729909      -1.35628095       0.00000000
Si       1.35710090      -1.35757602       1.35755694       0.00000000
Si      -1.35814617       1.35739683       1.35762592       0.00000000
Si       0.00188964      -2.71359797      -2.71314816       0.00000000
Si       2.71426653      -0.00024435       2.71442416       0.00000000
Si       2.71427631      -2.71468126       0.00027589       0.00000000
Si      -0.00273672       2.71476108       2.71428621       0.00000000
Si       2.71411015       2.71523349      -0.00010346       0.00000000
Si      -0.00285075      -2.71460144       2.71504492       0.00000000
