10
Lattice="16.28999089631971 0.0 0.0 0.0 16.28999089631971 0.0 0.0 0.0 34.48637585096406" Properties=species:S:1:pos:R:3:initial_magmoms:R:1 pbc="T T T"
Si      -2.00832894       0.60944148       1.03786806       0.00000000
Si       1.03590621       2.11162383      -0.21126366       0.00000000
Si       0.89592949      -1.47010734       1.67776312       0.00000000
Si      -0.21910050      -1.32494715      -2.00921187       0.00000000
Si       3.15979478       1.25128377      -0.74569932       0.00000000
Si       0.36823545       2.74927959      -2.34824762       0.00000000
Si      -1.03988844      -2.78519904       2.19333473       0.00000000
Si      -2.83190247      -1.29039606       2.05100938       0.00000000
Si      -1.96129971      -2.88730476      -1.52002235       0.00000000
Si       1.68773101      -0.09760968       3.44132840       0.00000000
