10
Lattice="16.28999089631971 0.0 0.0 0.0 16.28999089631971 0.0 0.0 0.0 34.48637585096406" Properties=species:S:1:pos:R:3:initial_magmoms:R:1 pbc="T T T"
Si       0.57458088      -0.76160637      -2.13553553       0.00000000
Si      -0.08638587       2.35338372       0.07787028       0.00000000
Si      -1.89890901      -1.31264820       0.47236015       0.00000000
Si       1.97234433       0.26523378       1.33383030       0.00000000
Si       1.81866447       2.57219100      -1.32920913       0.00000000
Si       1.39815441       1.13823117      -3.14867685       0.00000000
Si      -2.18575962      -1.26221436       2.75760113       0.00000000
Si       1.17147906       1.33993395       3.30086531       0.00000000
Si      -1.35513252      -3.55296303       0.08449167       0.00000000
Si       2.36659491      -2.25640935      -1.99321018       0.00000000
