10
Lattice="16.28999089631971 0.0 0.0 0.0 16.28999089631971 0.0 0.0 0.0 34.48637585096406" Properties=species:S:1:pos:R:3:initial_magmoms:R:1 pbc="T T T"
Si       1.95779736       0.14203251       1.29165344       0.00000000
Si      -0.76685175       1.94843061      -1.10166789       0.00000000
Si       0.80086527      -1.07470017      -1.96703501       0.00000000
Si      -1.96651251      -0.02819799       1.36021240       0.00000000
Si      -1.42187265       1.97983773       2.55420037       0.00000000
Si      -1.25786493       1.01344977      -3.22299503       0.00000000
Si       2.20939641      -2.06961192       2.04900917       0.00000000
Si      -1.17147906      -1.33993395      -3.30086531       0.00000000
Si       1.36342413      -3.51891693       0.36728011       0.00000000
Si       1.01338461       3.47079627      -1.20364416       0.00000000
