10
Lattice="16.28999089631971 0.0 0.0 0.0 16.28999089631971 0.0 0.0 0.0 34.48637585096406" Properties=species:S:1:pos:R:3:initial_magmoms:R:1 pbc="T T T"
Si       1.06381845      -0.04057839      -2.18874804       0.00000000
Si      -2.00409354      -1.63958850      -0.08438821       0.00000000
Si       2.10208671      -0.77700042       1.60641602       0.00000000
Si      -1.08563076       2.19581055       1.32607087       0.00000000
Si       0.51391692      -1.89934884       2.86386548       0.00000000
Si      -0.96891291      -3.07333656       1.51802214       0.00000000
Si      -2.29060206       0.83085516       2.78606762       0.00000000
Si       0.81221940       2.17106604      -2.94610376       0.00000000
Si       3.17842402      -0.93608856      -1.78305009       0.00000000
Si      -3.56444748      -0.52812180       1.27554830       0.00000000
