10
Lattice="16.28999089631971 0.0 0.0 0.0 16.28999089631971 0.0 0.0 0.0 34.48637585096406" Properties=species:S:1:pos:R:3:initial_magmoms:R:1 pbc="T T T"
Si       1.35435060      -1.35795069      -1.35766040       0.00000000
Si       1.35593073       1.35711990       1.35817770       0.00000000
Si      -1.36029645      -1.35804843       1.35786732       0.00000000
Si      -1.36410831       1.35840681      -1.35945370       0.00000000
Si       2.69398402      -0.00654858      -2.72071793       0.00000000
Si      -2.69311167      -0.03334563      -2.72163527       0.00000000
Si       2.71101438      -2.71456560       0.00113805       0.00000000
Si       2.71147327       2.71608057       0.00310378       0.00000000
Si       2.71264793      -0.00043983       2.71532081       0.00000000
Si      -0.00236205       2.71448415       2.71563118       0.00000000
