10
Lattice="16.28999089631971 0.0 0.0 0.0 16.28999089631971 0.0 0.0 0.0 34.48637585096406" Properties=species:S:1:pos:R:3:initial_magmoms:R:1 pbc="T T T"
Si      -1.35760860      -1.35661491      -1.35717759       0.00000000
Si       1.35731538       1.35843939      -1.35679824       0.00000000
Si       1.36011726      -1.35770634       1.35607403       0.00000000
Si      -1.35578412       1.35886293       1.36090212       0.00000000
Si       2.71251306      -2.71428867      -0.00044832       0.00000000
Si      -0.00061902      -2.71409319      -2.71456211       0.00000000
Si       2.71345788       2.71526607       0.00075870       0.00000000
Si      -2.71495656       0.00123804      -2.71445865       0.00000000
Si      -0.00013032       2.71551042      -2.71428621       0.00000000
Si       2.71560816       0.00107514      -2.71425173       0.00000000
