10
Lattice="16.28999089631971 0.0 0.0 0.0 16.28999089631971 0.0 0.0 0.0 34.48637585096406" Properties=species:S:1:pos:R:3:initial_magmoms:R:1 pbc="T T T"
Si       1.47844782       1.59506793       0.76970185       0.00000000
Si      -2.00168262       1.16629884      -0.15505083       0.00000000
Si       1.21603221      -0.51898311      -1.99765892       0.00000000
Si      -0.40632147      -1.75474251       1.60213446       0.00000000
Si      -3.19746636      -0.92183481      -0.60899525       0.00000000
Si       1.86111621      -2.14242822       1.94172199       0.00000000
Si       2.98738467      -0.11631060       1.70473148       0.00000000
Si      -0.61949241      -1.30665348      -3.23837596       0.00000000
Si      -1.94525406      -2.59120143      -1.68124625       0.00000000
Si       0.77098941       2.23075260       2.92699830       0.00000000
