10
Lattice="16.28999089631971 0.0 0.0 0.0 16.28999089631971 0.0 0.0 0.0 34.48637585096406" Properties=species:S:1:pos:R:3:initial_magmoms:R:1 pbc="T T T"
Si      -2.26743768       0.38768571      -0.33958753       0.00000000
Si       0.66767076      -0.63765576       2.13698396       0.00000000
Si       1.12626846       2.02611762      -0.23699051       0.00000000
Si       0.87060343      -1.59330861      -1.50915914       0.00000000
Si      -1.86111621       2.14242822      -1.94172199       0.00000000
Si      -1.11773835      -2.85115725      -1.66231322       0.00000000
Si       2.79155933      -1.49799582       1.60254830       0.00000000
Si       3.13141760       1.21845942      -1.27641046       0.00000000
Si      -0.36823545      -2.74927959       2.34824762       0.00000000
Si       0.79302393       3.20481315       1.81636394       0.00000000
