10
Lattice="16.28999089631971 0.0 0.0 0.0 16.28999089631971 0.0 0.0 0.0 34.48637585096406" Properties=species:S:1:pos:R:3:initial_magmoms:R:1 pbc="T T T"
Si      -1.78023636      -1.52236566       0.10197627       0.00000000
Si      -0.29168874       1.15984800      -2.04556053       0.00000000
Si       2.05198518      -1.13661846      -0.49684549       0.00000000
Si      -0.17873388       1.21608108       2.10280794       0.00000000
Si       1.86634530       2.34061236       2.17505694       0.00000000
Si       1.25159328      -2.95002126      -1.89495844       0.00000000
Si       1.23292494       2.88864054      -2.05618234       0.00000000
Si      -1.01338461      -3.47079627       1.20364416       0.00000000
Si      -2.52304407       1.84423977      -2.19730067       0.00000000
Si      -3.74165010      -0.31951206       0.78277220       0.00000000
