10
Lattice="16.28999089631971 0.0 0.0 0.0 16.28999089631971 0.0 0.0 0.0 34.48637585096406" Properties=species:S:1:pos:R:3:initial_magmoms:R:1 pbc="T T T"
Si       1.37951865      -1.24844931      -1.38900854       0.00000000
Si       1.23370686       1.19130140       1.61627388       0.00000000
Si      -1.39541769      -1.39328370       1.31848386       0.00000000
Si      -1.34610786       1.48931881      -1.36769594       0.00000000
Si      -1.51679448       0.53661771       2.61117189       0.00000000
Si       2.52130104       2.70038420       0.07135235       0.00000000
Si       0.01137042      -2.58706377      -2.75270406       0.00000000
Si       2.67781536      -2.74535370       0.05955800       0.00000000
Si      -2.70760977       0.12951641      -2.75242817       0.00000000
Si      -2.82087414      -2.64362265      -0.03621071       0.00000000
