10
Lattice="16.28999089631971 0.0 0.0 0.0 16.28999089631971 0.0 0.0 0.0 34.48637585096406" Properties=species:S:1:pos:R:3:initial_magmoms:R:1 pbc="T T T"
Si      -0.72112572       1.94757931      -1.07073360       0.00000000
Si       2.11335057       0.25291854       1.00627852       0.00000000
Si      -1.26040617      -0.28349487       1.97262180       0.00000000
Si      -0.09280413      -1.72910205      -1.66993471       0.00000000
Si      -1.84821453       0.91519079      -2.91030688       0.00000000
Si      -2.24725437      -1.37539728      -2.58085835       0.00000000
Si      -1.19205333      -2.59229286       2.33966050       0.00000000
Si       1.16077653       3.37322636      -1.40090634       0.00000000
Si       2.56391568      -1.54789209       2.48077883       0.00000000
Si       1.83071907      -1.59601275      -3.10977619       0.00000000
