10
Lattice="16.28999089631971 0.0 0.0 0.0 16.28999089631971 0.0 0.0 0.0 34.48637585096406" Properties=species:S:1:pos:R:3:initial_magmoms:R:1 pbc="T T T"
Si      -2.11460557       0.89551017      -0.40569795       0.00000000
Si       1.76167228       1.03456161      -1.18829772       0.00000000
Si      -0.40530986      -2.06228142       1.17415829       0.00000000
Si      -1.07633731       0.15908814       3.38946611       0.00000000
Si      -2.96057785      -0.55379484      -2.08742701       0.00000000
Si      -3.17842402       0.93608856       1.78305009       0.00000000
Si      -0.67533616      -3.73214488      -0.50522569       0.00000000
Si       0.95227105       2.31974487      -2.96827851       0.00000000
Si       0.63147208      -1.79820423       3.39178252       0.00000000
Si       2.88001336      -0.34538058      -2.75853226       0.00000000
