10
Lattice="16.28999089631971 0.0 0.0 0.0 16.28999089631971 0.0 0.0 0.0 34.48637585096406" Properties=species:S:1:pos:R:3:initial_magmoms:R:1 pbc="T T T"
Si       1.35716564       1.35733167       1.35686722       0.00000000
Si       1.35717541      -1.35710524      -1.35728105       0.00000000
Si      -1.35710090       1.35757602      -1.35755694       0.00000000
Si      -1.35995165      -1.35702542       1.35748797       0.00000000
Si      -2.71409048       0.00241092       2.71301022       0.00000000
Si      -0.00083245      -2.71347419      -2.71445865       0.00000000
Si       2.71418454      -0.00074934      -2.71480351       0.00000000
Si      -2.71557287       0.00027693      -2.71383789       0.00000000
Si       2.71481985       2.71516833       0.00013795       0.00000000
Si      -2.71511675      -2.71492940       0.00017243       0.00000000
