10
Lattice="16.28999089631971 0.0 0.0 0.0 16.28999089631971 0.0 0.0 0.0 34.48637585096406" Properties=species:S:1:pos:R:3:initial_magmoms:R:1 pbc="T T T"
Si      -1.35724324       1.35865116       1.36838567       0.00000000
Si       1.36084542      -1.35863487       1.36597162       0.00000000
Si      -1.37473249      -1.36397799      -1.35543603       0.00000000
Si       1.37123844       1.38364002      -1.36972719       0.00000000
Si      -2.70320725       2.70518256       0.01041489       0.00000000
Si       0.00509551      -2.64064158      -2.76765046       0.00000000
Si      -2.71436590      -2.71538010       0.00762149       0.00000000
Si       2.71519602       2.71456560       0.01089770       0.00000000
Si       2.71526118      -2.71639008       0.00951825       0.00000000
Si      -2.71278577      -0.00030951       2.72345960       0.00000000
