10
Lattice="16.28999089631971 0.0 0.0 0.0 16.28999089631971 0.0 0.0 0.0 34.48637585096406" Properties=species:S:1:pos:R:3:initial_magmoms:R:1 pbc="T T T"
Si       1.34395758       1.33092558       1.38062489       0.00000000
Si       1.48025601      -1.26113922      -1.36167117       0.00000000
Si      -1.37123844      -1.38364002       1.36972719       0.00000000
Si      -1.23090987       1.38627900      -1.58996421       0.00000000
Si      -0.49674726      -2.02712760      -2.51855833       0.00000000
Si      -2.36639780      -0.55482111      -2.65070261       0.00000000
Si       2.68874595       2.69122203      -0.00616962       0.00000000
Si      -2.71151507       2.67481800       0.00042763       0.00000000
Si      -0.01000206       2.68747533       2.73559536       0.00000000
Si       2.70208746      -0.02537982       2.73649200       0.00000000
