10
Lattice="16.28999089631971 0.0 0.0 0.0 16.28999089631971 0.0 0.0 0.0 34.48637585096406" Properties=species:S:1:pos:R:3:initial_magmoms:R:1 pbc="T T T"
Si       1.35441576      -1.35775521      -1.35645338       0.00000000
Si       1.35513252       1.35878148       1.35707413       0.00000000
Si      -1.35987943      -1.35656604       1.35690170       0.00000000
Si      -1.36084542       1.35863487      -1.36597162       0.00000000
Si       2.71262709      -2.71225242      -0.00003449       0.00000000
Si       2.71265967       0.00115659       2.71470005       0.00000000
Si      -0.00206883      -2.71420722       2.71470005       0.00000000
Si       2.71248048       2.71689507       0.00079319       0.00000000
Si      -0.00244350       2.71570590       2.71480351       0.00000000
Si      -2.71691400       0.00076563       2.71463108       0.00000000
