10
Lattice="16.28999089631971 0.0 0.0 0.0 16.28999089631971 0.0 0.0 0.0 34.48637585096406" Properties=species:S:1:pos:R:3:initial_magmoms:R:1 pbc="T T T"
Si      -1.39724447       1.19736387       1.45456717       0.00000000
Si      -1.34881430      -1.35826020      -1.35717759       0.00000000
Si       1.36352676       1.35347094      -1.35552225       0.00000000
Si       1.31824056      -1.35386190       1.40566547       0.00000000
Si      -2.28452819      -0.72150039       2.65414194       0.00000000
Si       0.22947886       2.35616931       2.77663762       0.00000000
Si      -2.69554118       2.69426826       0.00600063       0.00000000
Si       2.69515281      -2.71003698      -0.00744906       0.00000000
Si      -2.71036508      -0.00151497      -2.71587259       0.00000000
Si       0.00559399       2.71456560      -2.71611399       0.00000000
