10
Lattice="16.28999089631971 0.0 0.0 0.0 16.28999089631971 0.0 0.0 0.0 34.48637585096406" Properties=species:S:1:pos:R:3:initial_magmoms:R:1 pbc="T T T"
Si      -1.35861486      -1.35514881      -1.35510841       0.00000000
Si       1.35703031      -1.35672894       1.35728105       0.00000000
Si      -1.35720571       1.35785295       1.35762592       0.00000000
Si       1.35986476       1.35731538      -1.35762592       0.00000000
Si      -2.70457887      -0.00861741      -2.71307919       0.00000000
Si       2.71382441       0.00076563      -2.71259638       0.00000000
Si       2.71460633      -2.71365336      -0.00044832       0.00000000
Si      -2.71415739      -2.71410948      -0.00003449       0.00000000
Si       2.71524163       0.00048870       2.71421724       0.00000000
Si       0.00003258      -2.71647153       2.71383789       0.00000000
