10
Lattice="16.28999089631971 0.0 0.0 0.0 16.28999089631971 0.0 0.0 0.0 34.48637585096406" Properties=species:S:1:pos:R:3:initial_magmoms:R:1 pbc="T T T"
Si      -1.60950480       1.04734926       1.35200463       0.00000000
Si      -1.62672333      -1.15880544      -1.32207044       0.00000000
Si       1.14558122       1.73834290      -1.24361389       0.00000000
Si       1.63164224      -1.33607322       1.38355969       0.00000000
Si      -2.25159144      -0.96361866       2.64486510       0.00000000
Si      -0.22947886      -2.35616931      -2.77663762       0.00000000
Si       2.47940642       0.38864682      -2.76956791       0.00000000
Si       2.92563839      -2.44452627      -0.29458279       0.00000000
Si      -0.71033034       2.62631194       2.82191825       0.00000000
Si       2.48114945       0.26093322       3.08573918       0.00000000
