10
Lattice="16.28999089631971 0.0 0.0 0.0 16.28999089631971 0.0 0.0 0.0 34.48637585096406" Properties=species:S:1:pos:R:3:initial_magmoms:R:1 pbc="T T T"
Si      -1.86707902       0.90701091       1.01600369       0.00000000
Si       0.57222535      -1.52321274       1.72366451       0.00000000
Si       1.37954146       1.86694803       0.69672864       0.00000000
Si      -0.76156890      -2.03149332      -2.09477261       0.00000000
Si       1.63314418      -1.93888467      -1.77594589       0.00000000
Si       2.42474044      -2.22620769       0.44594358       0.00000000
Si       2.32828735       0.27262944      -2.39249366       0.00000000
Si      -2.31764413       2.70782154      -0.45849662       0.00000000
Si      -3.39169270      -0.82178163       1.02662550       0.00000000
Si       3.36091045       1.33169121      -0.54016041       0.00000000
