10
Lattice="16.28999089631971 0.0 0.0 0.0 16.28999089631971 0.0 0.0 0.0 34.48637585096406" Properties=species:S:1:pos:R:3:initial_magmoms:R:1 pbc="T T T"
Si      -0.80314587       2.13214338      -0.56964627       0.00000000
Si       1.98136899      -0.53525682      -1.23688905       0.00000000
Si      -0.25915761       0.15882750       2.39739073       0.00000000
Si      -1.37954146      -1.86694803      -0.69672864       0.00000000
Si      -3.24662048      -0.95993712       0.31927505       0.00000000
Si      -1.86381220       1.38410496      -2.57740971       0.00000000
Si       1.16100459       3.30158294       0.14387724       0.00000000
Si       0.22991706      -2.16262782       2.76994726       0.00000000
Si      -2.54762959      -0.31297977       2.51164416       0.00000000
Si       0.94874589      -1.59431859      -3.08922230       0.00000000
