10
Lattice="10.86 0.0 0.0 0.0 10.86 0.0 0.0 0.0 10.86" Properties=species:S:1:pos:R:3:initial_magmoms:R:1 pbc="T T T"
Si      -1.21825308      -1.44673662       1.46034420       0.00000000
Si       1.49674692      -1.44673662      -1.25465580       0.00000000
Si       1.49674692       1.26826338       1.46034420       0.00000000
Si      -2.60756202       2.49050208       0.27636528       0.00000000
Si       0.17093640       2.67461166      -2.61470790       0.00000000
Si      -2.50831248      -2.86871244       0.03136368       0.00000000
Si      -2.57575308      -0.08923662       2.81784420       0.00000000
Si       0.13924692       2.62576338       2.81784420       0.00000000
Si       0.01243470      -2.93123346      -2.52653556       0.00000000
Si       2.85424692      -0.08923662      -2.61215580       0.00000000
