10
Lattice="10.86 0.0 0.0 0.0 10.86 0.0 0.0 0.0 10.86" Properties=species:S:1:pos:R:3:initial_magmoms:R:1 pbc="T T T"
Si       1.43385666      -1.19730414      -1.29363234       0.00000000
Si       1.25850024       1.41702366       1.25373270       0.00000000
Si      -1.45649976      -1.29797634       1.25373270       0.00000000
Si      -1.45649976       1.41702366      -1.46126730       0.00000000
Si       0.08302470      -2.49266322      -2.72018022       0.00000000
Si       2.60342436       0.08328534       2.61764010       0.00000000
Si      -0.21210666      -2.75964546       2.48389920       0.00000000
Si      -0.09899976       2.77452366       2.61123270       0.00000000
Si       2.61600024       2.77452366      -0.10376730       0.00000000
Si       2.64123888       0.19092966      -2.77148286       0.00000000
