10
Lattice="10.86 0.0 0.0 0.0 10.86 0.0 0.0 0.0 10.86" Properties=species:S:1:pos:R:3:initial_magmoms:R:1 pbc="T T T"
Si      -1.45952970      -1.14620784       1.23278376       0.00000000
Si       1.25547030      -1.14620784      -1.48221624       0.00000000
Si       1.25547030       1.56879216       1.23278376       0.00000000
Si      -0.10202970      -2.50370784       2.59028376       0.00000000
Si       2.61297030      -2.50370784      -0.12471624       0.00000000
Si      -0.05279046      -2.43681024      -2.70495450       0.00000000
Si      -1.78833792       1.28805030      -2.93657658       0.00000000
Si       2.61297030       0.21129216       2.59028376       0.00000000
Si      -2.85220524      -2.46578472      -0.20492820       0.00000000
Si      -2.81702970       0.21129216       2.59028376       0.00000000
