10
Lattice="10.86 0.0 0.0 0.0 10.86 0.0 0.0 0.0 10.86" Properties=species:S:1:pos:R:3:initial_magmoms:R:1 pbc="T T T"
Si       1.25696898      -1.17157680      -1.35494790       0.00000000
Si      -1.45803102      -1.17157680       1.36005210       0.00000000
Si      -1.35063648       1.44113286      -1.29626046       0.00000000
Si       1.25696898       1.54342320       1.36005210       0.00000000
Si       2.61446898      -2.52907680       0.00255210       0.00000000
Si       2.41032270       0.08573970      -2.79260556       0.00000000
Si      -0.10053102      -2.52907680      -2.71244790       0.00000000
Si      -0.10053102      -2.52907680       2.71755210       0.00000000
Si       2.61446898       0.18592320       2.71755210       0.00000000
Si      -2.81553102      -2.52907680       0.00255210       0.00000000
