10
Lattice="10.86 0.0 0.0 0.0 10.86 0.0 0.0 0.0 10.86" Properties=species:S:1:pos:R:3:initial_magmoms:R:1 pbc="T T T"
Si      -1.35750000       1.35750000      -1.35750000       0.00000000
Si       1.35750000      -1.35750000      -1.35750000       0.00000000
Si      -1.35750000      -1.35750000       1.35750000       0.00000000
Si       1.35750000       1.35750000       1.35750000       0.00000000
Si      -2.61446898       2.52907680      -0.00255210       0.00000000
Si      -2.62184292      -2.60391306       0.08838954       0.00000000
Si      -0.05827476      -2.83897776      -2.53875306       0.00000000
Si      -0.20414628       2.61481650      -2.79515766       0.00000000
Si       2.71500000       0.00000000       2.71500000       0.00000000
Si      -2.71500000       0.00000000       2.71500000       0.00000000
