10
Lattice="16.28999089631971 0.0 0.0 0.0 16.28999089631971 0.0 0.0 0.0 34.450931932916035" Properties=species:S:1:pos:R:3:initial_magmoms:R:1 pbc="T T T"
Si      -1.35720135      -1.35556095       1.35719522       0.00000000
Si      -1.35734796       1.35689184      -1.35736748       0.00000000
Si       1.35876519       1.35747828       1.35664401       0.00000000
Si       1.35775521      -1.35807287      -1.35764308       0.00000000
Si      -0.00278559       2.71197549       2.71335692       0.00000000
Si       0.00035838       2.71285515      -2.71401148       0.00000000
Si      -2.71425609       2.71463076       0.00027561       0.00000000
Si       2.71446786       0.00053757      -2.71449380       0.00000000
Si       2.71252935      -0.00063531       2.71652640       0.00000000
Si      -2.71399545      -0.00105885       2.71538952       0.00000000
