10
Lattice="16.28999089631971 0.0 0.0 0.0 16.28999089631971 0.0 0.0 0.0 34.450931932916035" Properties=species:S:1:pos:R:3:initial_magmoms:R:1 pbc="T T T"
Si       0.07025877       2.30819363      -0.41733882       0.00000000
Si      -2.08274166      -0.60366179       0.93506772       0.00000000
Si       1.65595995      -0.87457752       1.45310667       0.00000000
Si       0.74789019      -0.46872357      -2.24499623       0.00000000
Si       2.14236306       1.55256569      -1.81832120       0.00000000
Si      -2.79713798       1.61256176       1.44535521       0.00000000
Si      -2.25815238       2.78436662      -0.78524053       0.00000000
Si       0.75090384       3.23833634       1.62518917       0.00000000
Si       0.60755184      -2.74215339       2.44880806       0.00000000
Si      -1.53740133      -1.85573304       2.90645450       0.00000000
