10
Lattice="16.28999089631971 0.0 0.0 0.0 16.28999089631971 0.0 0.0 0.0 34.450931932916035" Properties=species:S:1:pos:R:3:initial_magmoms:R:1 pbc="T T T"
Si       1.70121357       0.52790514       1.58768728       0.00000000
Si       1.68922413       1.20106659      -1.57127343       0.00000000
Si      -0.98425809      -1.98982580       1.39606076       0.00000000
Si      -2.01811923       1.73542746       0.29305981       0.00000000
Si       0.39465783       1.97332662       2.92087019       0.00000000
Si      -1.94675274      -0.77167589      -2.96374643       0.00000000
Si       3.43549584       1.48607643       0.26976546       0.00000000
Si      -2.33411265      -0.76078811       2.92848041       0.00000000
Si      -0.93924882       3.39813147       1.51753481       0.00000000
Si      -2.13622173      -3.27085511      -0.31632863       0.00000000
