10
Lattice="16.28999089631971 0.0 0.0 0.0 16.28999089631971 0.0 0.0 0.0 34.450931932916035" Properties=species:S:1:pos:R:3:initial_magmoms:R:1 pbc="T T T"
Si      -1.07887041      -1.66270401      -1.22447500       0.00000000
Si       0.89013447       1.87110198      -1.11644819       0.00000000
Si      -1.39432626       1.26001521       1.42169429       0.00000000
Si       1.33390665      -1.42480485       1.40333538       0.00000000
Si      -1.06890093       3.35629386      -1.06391944       0.00000000
Si      -2.87764968       2.46485619       0.09286598       0.00000000
Si      -0.02964780       2.62940148       2.76859213       0.00000000
Si       0.93924882      -3.39813147      -1.51753481       0.00000000
Si       2.68574859      -0.08467542       2.77410428       0.00000000
Si       2.72732067       2.74377357       0.10585055       0.00000000
