10
Lattice="16.28999089631971 0.0 0.0 0.0 16.28999089631971 0.0 0.0 0.0 34.450931932916035" Properties=species:S:1:pos:R:3:initial_magmoms:R:1 pbc="T T T"
Si      -0.47615344       2.28955950       0.02091173       0.00000000
Si       2.32841115      -0.47617299       0.36790171       0.00000000
Si      -0.20305485      -0.26606457      -2.49614367       0.00000000
Si      -0.53898560      -1.17180486       2.23059574       0.00000000
Si       2.25815238      -2.78436662       0.78524053       0.00000000
Si       0.17541072      -3.38802841       1.72030825       0.00000000
Si       1.10447829       3.52311975      -1.15028281       0.00000000
Si       3.00905622       0.45396972       2.41042970       0.00000000
Si       1.58205222      -2.03967090      -2.91954586       0.00000000
Si       1.24493067      -0.50580450       3.71687867       0.00000000
