10
Lattice="16.28999089631971 0.0 0.0 0.0 16.28999089631971 0.0 0.0 0.0 34.450931932916035" Properties=species:S:1:pos:R:3:initial_magmoms:R:1 pbc="T T T"
Si       1.35770634       1.35596331      -1.35664401       0.00000000
Si       1.35734796      -1.35689184       1.35736748       0.00000000
Si      -1.35690813       1.35773892       1.35764308       0.00000000
Si      -1.35935163      -1.35814617      -1.35767754       0.00000000
Si      -2.71197712      -0.00195480      -2.71259899       0.00000000
Si       0.00014661      -2.71245279       2.71456270       0.00000000
Si      -2.71334548      -0.00083079       2.71463160       0.00000000
Si      -2.71477411       2.71490769      -0.00024116       0.00000000
Si      -2.71491258      -2.71502172       0.00027561       0.00000000
Si       2.71510317      -2.71496470      -0.00027561       0.00000000
