10
Lattice="16.28999089631971 0.0 0.0 0.0 16.28999089631971 0.0 0.0 0.0 34.450931932916035" Properties=species:S:1:pos:R:3:initial_magmoms:R:1 pbc="T T T"
Si       2.00834523      -0.94763817      -0.76122822       0.00000000
Si      -0.20383677      -0.58811787       2.27128231       0.00000000
Si       0.58121091       2.33719146      -0.06139160       0.00000000
Si      -1.55385423      -1.40589216      -1.25084514       0.00000000
Si       2.09287404      -2.81408121       0.75785202       0.00000000
Si       1.40061420      -1.05366978      -3.14251241       0.00000000
Si       0.96107742       2.53851957      -2.41980036       0.00000000
Si      -2.65898412       2.31511851       1.11014745       0.00000000
Si      -0.49989123       3.17948220       1.84040426       0.00000000
Si      -1.01519280      -0.65306610      -3.52254086       0.00000000
