10
Lattice="16.28999089631971 0.0 0.0 0.0 16.28999089631971 0.0 0.0 0.0 34.450931932916035" Properties=species:S:1:pos:R:3:initial_magmoms:R:1 pbc="T T T"
Si       1.31207805       1.40341608      -1.37080335       0.00000000
Si       0.21335013      -2.27297628      -0.63768711       0.00000000
Si       0.07719831      -0.20619882       2.41174749       0.00000000
Si      -2.19229191       1.06207542       0.13611571       0.00000000
Si      -1.88183709       1.27899306       2.46427623       0.00000000
Si      -2.24689599      -2.37084660      -0.85324671       0.00000000
Si      -3.22959024      -0.32044059      -1.50647119       0.00000000
Si       0.63136782      -2.03954058      -2.91933915       0.00000000
Si       3.50707410       1.13373513      -0.68571173       0.00000000
Si       1.09509525       3.56781951      -0.69432447       0.00000000
