10
Lattice="16.28999089631971 0.0 0.0 0.0 16.28999089631971 0.0 0.0 0.0 34.450931932916035" Properties=species:S:1:pos:R:3:initial_magmoms:R:1 pbc="T T T"
Si      -1.08110214       0.84229074       1.90179586       0.00000000
Si       0.37986651       0.20132811      -2.35840877       0.00000000
Si       2.35812411       0.46314099      -0.04830023       0.00000000
Si      -0.58121091      -2.33719146       0.06139160       0.00000000
Si      -3.24019503      -0.02207295       1.17153905       0.00000000
Si       1.42713432      -3.28482963      -0.69983662       0.00000000
Si      -0.34756344      -0.88184286       3.54286692       0.00000000
Si       3.20530185      -1.70585622      -0.58232443       0.00000000
Si       2.51875980       2.06775486      -1.74056541       0.00000000
Si      -0.78504768      -2.92530933       2.33267390       0.00000000
