10
Lattice="16.28999089631971 0.0 0.0 0.0 16.28999089631971 0.0 0.0 0.0 34.450931932916035" Properties=species:S:1:pos:R:3:initial_magmoms:R:1 pbc="T T T"
Si      -0.69243903      -1.29658626       1.77732457       0.00000000
Si      -1.40105403       0.19119573      -1.87313267       0.00000000
Si      -0.52486380       2.15904402       0.82802861       0.00000000
Si       2.17991151      -0.79197093      -0.50525765       0.00000000
Si       3.36971682       0.13382235       1.35936563       0.00000000
Si      -0.47545623      -3.46098969       1.10084569       0.00000000
Si      -0.51795684       2.20823982      -2.88151201       0.00000000
Si      -1.19690775      -1.83425400      -3.03878060       0.00000000
Si      -2.60240895       1.73688867       2.08600509       0.00000000
Si       2.64862368      -0.05491359      -2.70622557       0.00000000
