10
Lattice="16.28999089631971 0.0 0.0 0.0 16.28999089631971 0.0 0.0 0.0 34.450931932916035" Properties=species:S:1:pos:R:3:initial_magmoms:R:1 pbc="T T T"
Si       0.20414628      -2.02544973      -1.16564793       0.00000000
Si       1.40105403      -0.19119573       1.87313267       0.00000000
Si      -2.28463992       0.02344131       0.75237432       0.00000000
Si       0.88309719       2.01704409      -1.00837934       0.00000000
Si       0.87619023       1.96784829       2.70116128       0.00000000
Si       0.26568990       3.33685989       0.87808584       0.00000000
Si      -3.30906915      -0.42655365      -1.31402818       0.00000000
Si      -2.02911498      -2.33709372      -1.90393182       0.00000000
Si       0.81831186      -3.71203488       0.48393251       0.00000000
Si       3.58096554      -0.98316666       1.36787502       0.00000000
