10
Lattice="16.28999089631971 0.0 0.0 0.0 16.28999089631971 0.0 0.0 0.0 34.450931932916035" Properties=species:S:1:pos:R:3:initial_magmoms:R:1 pbc="T T T"
Si       1.35790182      -1.35575154       1.35981349       0.00000000
Si      -1.36065483       1.35971001       1.35960679       0.00000000
Si      -1.36249560      -1.34804637      -1.37366622       0.00000000
Si       1.33582887       1.38867363      -1.37060009       0.00000000
Si      -2.54428786       0.21354561      -2.79871259       0.00000000
Si       2.67115275       0.05523939      -2.74559267       0.00000000
Si       2.71179630      -2.71370223       0.00520209       0.00000000
Si       2.71306692       2.71671588       0.00416857       0.00000000
Si       2.71324611       0.00071676       2.71735323       0.00000000
Si      -0.00174303      -2.71349046       2.71721542       0.00000000
