10
Lattice="16.28999089631971 0.0 0.0 0.0 16.28999089631971 0.0 0.0 0.0 34.450931932916035" Properties=species:S:1:pos:R:3:initial_magmoms:R:1 pbc="T T T"
Si      -1.33532388       1.33343424       1.37499258       0.00000000
Si      -1.23005790      -1.56085893      -1.23944359       0.00000000
Si       1.38484548      -1.39820328       1.38286118       0.00000000
Si       1.41229413       1.22665329      -1.67117227       0.00000000
Si       0.72606159      -2.37099321      -2.38403136       0.00000000
Si       2.45825874      -0.74694537      -2.50564321       0.00000000
Si       2.70102861       2.66883957      -0.06738262       0.00000000
Si       0.04191417       2.66147649       2.74976124       0.00000000
Si      -2.67115275      -0.05523939       2.74559267       0.00000000
Si      -2.68768710       2.78643708      -0.14654057       0.00000000
