10
Lattice="16.28999089631971 0.0 0.0 0.0 16.28999089631971 0.0 0.0 0.0 34.450931932916035" Properties=species:S:1:pos:R:3:initial_magmoms:R:1 pbc="T T T"
Si       1.35783666      -1.35612621       1.35609279       0.00000000
Si      -1.35840681      -1.35648459      -1.35695407       0.00000000
Si       1.35702216       1.35872854      -1.35688516       0.00000000
Si      -1.35980775       1.35799729       1.36139824       0.00000000
Si      -0.00664632      -2.69568549       2.72782631       0.00000000
Si       2.71547784      -2.71215468      -0.00003445       0.00000000
Si      -0.00037467      -2.71414206      -2.71383923       0.00000000
Si      -2.71560816      -2.71269225       0.00072347       0.00000000
Si       2.71401174       0.00120546      -2.71442489       0.00000000
Si      -2.71588509       0.00128691      -2.71432154       0.00000000
