10
Lattice="16.28999089631971 0.0 0.0 0.0 16.28999089631971 0.0 0.0 0.0 34.450931932916035" Properties=species:S:1:pos:R:3:initial_magmoms:R:1 pbc="T T T"
Si       1.04840811       1.86757587      -0.99570139       0.00000000
Si      -2.14495317       0.88642035       0.45764644       0.00000000
Si      -0.46322244      -1.41307605      -1.88991028       0.00000000
Si       1.19500182      -0.89593371       1.92126065       0.00000000
Si      -3.40329540      -1.02089430       0.22537812       0.00000000
Si      -0.60755184       2.74215339      -2.44880806       0.00000000
Si      -2.69029350       2.13849160      -1.51374034       0.00000000
Si       2.83024089       1.06580583      -2.27476186       0.00000000
Si      -2.83139748      -1.55333295      -2.02843755       0.00000000
Si       3.46573008       0.04219110       1.66470441       0.00000000
