10
Lattice="16.28999089631971 0.0 0.0 0.0 16.28999089631971 0.0 0.0 0.0 34.450931932916035" Properties=species:S:1:pos:R:3:initial_magmoms:R:1 pbc="T T T"
Si       1.35711990      -1.35684623      -1.35722967       0.00000000
Si      -1.35741312       1.35804843      -1.35726412       0.00000000
Si       1.35731538       1.35842310       1.35709187       0.00000000
Si      -1.35773892      -1.35639174       1.35909002       0.00000000
Si       2.71472850      -2.71461850      -0.00003445       0.00000000
Si      -2.71500543      -2.71457686       0.00006890       0.00000000
Si       0.00123804       2.71500543      -2.71466605       0.00000000
Si      -0.00006516      -2.71532241      -2.71487276       0.00000000
Si       2.71511946       2.71531494       0.00013780       0.00000000
Si      -2.71617831       0.00133578      -2.71435599       0.00000000
