10
Lattice="16.28999089631971 0.0 0.0 0.0 16.28999089631971 0.0 0.0 0.0 34.450931932916035" Properties=species:S:1:pos:R:3:initial_magmoms:R:1 pbc="T T T"
Si       1.26294741      -1.41459332       1.34003865       0.00000000
Si       1.37186235       1.33171239      -1.35388793       0.00000000
Si      -1.34325711      -1.38466502      -1.35388793       0.00000000
Si      -1.34534223       1.27130907       1.52411008       0.00000000
Si      -0.42253002      -2.23883474       2.81987926       0.00000000
Si      -2.69643483       2.68270725       0.02607937       0.00000000
Si      -2.20121883      -0.46675900       3.08456591       0.00000000
Si       0.01339038       2.69117805      -2.71387368       0.00000000
Si      -2.70166392      -0.02363679      -2.71187552       0.00000000
Si       0.09791919       2.37687879       2.99950652       0.00000000
