10
Lattice="16.28999089631971 0.0 0.0 0.0 16.28999089631971 0.0 0.0 0.0 34.450931932916035" Properties=species:S:1:pos:R:3:initial_magmoms:R:1 pbc="T T T"
Si      -1.57846257      -0.75977537       1.52989784       0.00000000
Si      -0.24060330      -0.68020035      -2.29109161       0.00000000
Si       1.93871851      -1.39307097       0.54556526       0.00000000
Si      -0.92366973       2.30593910       0.50253602       0.00000000
Si      -0.52290232       0.46889951       3.35162969       0.00000000
Si       2.63725000       1.99874227      -1.29604478       0.00000000
Si       3.56099074       0.22284557      -0.02501139       0.00000000
Si      -0.80592561       1.36721156      -3.24769117       0.00000000
Si      -3.15965142       1.91968691      -0.27453963       0.00000000
Si       0.71054374       2.90643736      -2.27310821       0.00000000
