10
Lattice="16.28999089631971 0.0 0.0 0.0 16.28999089631971 0.0 0.0 0.0 34.450931932916035" Properties=species:S:1:pos:R:3:initial_magmoms:R:1 pbc="T T T"
Si      -1.16908443       1.44901179       1.44425278       0.00000000
Si      -1.36559070      -1.34211681      -1.37834811       0.00000000
Si       1.35115776       1.37049399      -1.37800360       0.00000000
Si       1.31290884      -1.45626084       1.56424544       0.00000000
Si      -2.39480919      -0.01466100       2.83868948       0.00000000
Si       0.65285433       2.22270534       2.92622934       0.00000000
Si       2.29571712       0.37823751       2.92150956       0.00000000
Si       2.70964602      -2.70207117       0.01750108       0.00000000
Si      -2.71950147      -2.70871749       0.00186035       0.00000000
Si       2.70528030       2.72772792      -0.00685574       0.00000000
