10
Lattice="16.28999089631971 0.0 0.0 0.0 16.28999089631971 0.0 0.0 0.0 34.450931932916035" Properties=species:S:1:pos:R:3:initial_magmoms:R:1 pbc="T T T"
Si      -0.50617917       2.12804415       0.93723813       0.00000000
Si       0.44812161      -1.52700831       1.80292163       0.00000000
Si      -1.68026463      -0.34705845      -1.92818529       0.00000000
Si       2.57176746       0.22604004      -0.48792882       0.00000000
Si      -1.85398119      -2.26237149      -0.29248858       0.00000000
Si       1.53497412       1.85948721      -1.92846089       0.00000000
Si      -0.02617803       0.68655834      -3.38873336       0.00000000
Si       0.28406502      -3.48994679       0.43714812       0.00000000
Si       1.01374299       3.43279170      -0.25004500       0.00000000
Si       2.58463656      -0.87830793       2.70667343       0.00000000
