10
Lattice="16.28999089631971 0.0 0.0 0.0 16.28999089631971 0.0 0.0 0.0 34.450931932916035" Properties=species:S:1:pos:R:3:initial_magmoms:R:1 pbc="T T T"
Si      -1.48028859       1.21704219      -1.39230074       0.00000000
Si       1.23645987      -1.52112762      -1.37655666       0.00000000
Si      -1.65408660      -1.03361679       1.46054808       0.00000000
Si       1.56115215       1.17292887       1.46027247       0.00000000
Si       0.02617803      -0.68655834       3.38873336       0.00000000
Si      -0.12608460       2.55536343      -2.75828096       0.00000000
Si       2.59037064      -0.15452694      -2.75676511       0.00000000
Si      -2.78668143       2.57098554       0.04402832       0.00000000
Si       2.78687691       2.63660166       0.06583577       0.00000000
Si      -2.77620696      -2.72795598       0.00048231       0.00000000
