10
Lattice="16.28999089631971 0.0 0.0 0.0 16.28999089631971 0.0 0.0 0.0 34.450931932916035" Properties=species:S:1:pos:R:3:initial_magmoms:R:1 pbc="T T T"
Si       2.25320022      -0.61339995       0.10624673       0.00000000
Si      -1.12946715      -1.73359809      -1.11452272       0.00000000
Si      -0.09327654       2.20628502      -0.88545835       0.00000000
Si      -0.47389239       0.22245624       2.33146812       0.00000000
Si       2.25766368       2.52148023      -0.93110586       0.00000000
Si      -3.18552579      -0.70903854      -1.31799004       0.00000000
Si       1.25097426       1.66193838       3.03206266       0.00000000
Si       3.07999917       0.63102573       1.95512593       0.00000000
Si       2.19276432      -2.91459051       0.90047896       0.00000000
Si      -2.66559786       1.05370236       2.54213569       0.00000000
