10
Lattice="16.28999089631971 0.0 0.0 0.0 16.28999089631971 0.0 0.0 0.0 34.450931932916035" Properties=species:S:1:pos:R:3:initial_magmoms:R:1 pbc="T T T"
Si      -2.19499605       0.26968095      -0.68509162       0.00000000
Si       0.82782522      -2.12494905       0.55087071       0.00000000
Si       0.88216866       0.56452995      -2.13613123       0.00000000
Si       0.06680529       0.48664746       2.89350094       0.00000000
Si      -0.95127084       2.53356741       1.85494256       0.00000000
Si       3.02635620      -1.34789976       0.47414844       0.00000000
Si      -2.41197885       2.43408438      -0.00861274       0.00000000
Si       2.95875270      -0.47341998      -1.83444425       0.00000000
Si       1.91855475      -1.39629735       2.78460148       0.00000000
Si      -3.50707410      -1.13373513       0.68571173       0.00000000
