10
Lattice="16.28999089631971 0.0 0.0 0.0 16.28999089631971 0.0 0.0 0.0 34.450931932916035" Properties=species:S:1:pos:R:3:initial_magmoms:R:1 pbc="T T T"
Si      -1.35777150      -1.35645201      -1.35774644       0.00000000
Si       1.35907470       1.35633798      -1.35660956       0.00000000
Si       1.35747828      -1.35795069       1.35722967       0.00000000
Si      -1.35808101       1.35786924       1.35736748       0.00000000
Si       2.71463076      -0.00127062      -2.71197888       0.00000000
Si      -2.71195920       0.00087966       2.71511391       0.00000000
Si      -2.71627605       0.00026064      -2.71173772       0.00000000
Si      -0.00172674      -2.71482624       2.71387368       0.00000000
Si       2.71490769       2.71441899      -0.00003445       0.00000000
Si      -2.71482624       2.71467963       0.00041341       0.00000000
