10
Lattice="16.28999089631971 0.0 0.0 0.0 16.28999089631971 0.0 0.0 0.0 34.450931932916035" Properties=species:S:1:pos:R:3:initial_magmoms:R:1 pbc="T T T"
Si       1.35185823       1.35866745      -1.38234442       0.00000000
Si      -1.36365219      -1.36060596      -1.38637518       0.00000000
Si      -1.42886106       1.33410213       1.38661633       0.00000000
Si       1.54930932      -1.27936773       1.43774155       0.00000000
Si       0.13753647       2.45851938       2.69682046       0.00000000
Si      -2.71785618      -2.69892720      -0.02039496       0.00000000
Si       2.71210581       2.71565703       0.00723470       0.00000000
Si       2.71839375      -2.72837952      -0.00651123       0.00000000
Si       2.70863604      -0.00014661      -2.74398381       0.00000000
Si      -0.00790065      -2.71401174      -2.74512069       0.00000000
