10
Lattice="16.28999089631971 0.0 0.0 0.0 16.28999089631971 0.0 0.0 0.0 34.450931932916035" Properties=species:S:1:pos:R:3:initial_magmoms:R:1 pbc="T T T"
Si      -1.39861053       0.53009289      -1.83409974       0.00000000
Si      -0.69517575       1.60969635       1.59707720       0.00000000
Si       2.35094022       0.31519521      -0.04564751       0.00000000
Si       0.09327654      -2.20628502       0.88545835       0.00000000
Si       1.04086584       1.71245367       3.15849766       0.00000000
Si      -2.24578827       2.69909010      -1.30007554       0.00000000
Si      -0.38061585      -1.98382878       3.21692647       0.00000000
Si       2.34647676      -2.81968497       0.99170508       0.00000000
Si       2.83718043       2.56940541       0.03458875       0.00000000
Si       3.02746392       0.43041438      -2.30907500       0.00000000
