10
Lattice="16.28999089631971 0.0 0.0 0.0 16.28999089631971 0.0 0.0 0.0 34.450931932916035" Properties=species:S:1:pos:R:3:initial_magmoms:R:1 pbc="T T T"
Si      -0.24348663       2.28509604      -0.25111298       0.00000000
Si      -0.86925069       0.29312226       2.15990238       0.00000000
Si       2.32231869      -0.43161984       0.14565862       0.00000000
Si      -1.18980531      -0.92579328      -1.86462328       0.00000000
Si       0.89919171      -0.54086058       3.36000096       0.00000000
Si       2.74476726      -0.93928140      -2.15869660       0.00000000
Si      -3.36971682      -0.13382235      -1.35936563       0.00000000
Si      -2.60144784      -1.33092558       2.28151424       0.00000000
Si       1.71004275       3.22048413       0.87167797       0.00000000
Si       3.28474818       1.45725453       1.19961657       0.00000000
