10
Lattice="16.28999089631971 0.0 0.0 0.0 16.28999089631971 0.0 0.0 0.0 34.450931932916035" Properties=species:S:1:pos:R:3:initial_magmoms:R:1 pbc="T T T"
Si      -1.35610992      -1.35610992       1.35719522       0.00000000
Si      -1.35757602       1.35725022      -1.35719522       0.00000000
Si       1.35816246       1.35702216       1.35788424       0.00000000
Si       1.35777150      -1.35835794      -1.35705742       0.00000000
Si      -2.71375110      -0.00008145       2.71332246       0.00000000
Si       0.00037467       2.71402775      -2.71459715       0.00000000
Si       0.00110772       2.71193019       2.71735323       0.00000000
Si      -2.71456560       2.71477330       0.00034451       0.00000000
Si       2.71516833       2.71473166       0.00024116       0.00000000
Si       0.00193851      -2.71643895      -2.71363252       0.00000000
