10
Lattice="16.28999089631971 0.0 0.0 0.0 16.28999089631971 0.0 0.0 0.0 34.450931932916035" Properties=species:S:1:pos:R:3:initial_magmoms:R:1 pbc="T T T"
Si      -0.16063569      -1.60461387       1.69226517       0.00000000
Si       1.94942430       0.84807369      -0.98123199       0.00000000
Si      -0.47597751       2.07151785       1.03280507       0.00000000
Si      -0.13233996       0.52250175      -2.33181263       0.00000000
Si      -2.13889329      -1.86642675      -0.61784336       0.00000000
Si      -2.03545179       1.78052958      -2.37287816       0.00000000
Si       2.67737553       2.31287049       0.87005877       0.00000000
Si      -2.51875980      -2.06775486       1.74056541       0.00000000
Si      -1.75172886       3.21204591      -0.57791471       0.00000000
Si       1.01081079      -0.60147567       3.55861100       0.00000000
