10
Lattice="16.28999089631971 0.0 0.0 0.0 16.28999089631971 0.0 0.0 0.0 34.450931932916035" Properties=species:S:1:pos:R:3:initial_magmoms:R:1 pbc="T T T"
Si       1.04596461      -1.97359866      -0.83447094       0.00000000
Si      -0.33425451       0.94187151      -2.24627092       0.00000000
Si      -1.41229413      -1.22665329       1.67117227       0.00000000
Si       1.28873448       1.44218628       1.60378966       0.00000000
Si       1.67172867       0.01837512      -3.24548631       0.00000000
Si      -0.68623254      -3.59764650      -0.71285908       0.00000000
Si      -2.64235203      -2.78751222       0.43172868       0.00000000
Si       2.81440701      -2.80758150       0.36562764       0.00000000
Si      -0.02744865      -2.62485657       3.05403345       0.00000000
Si      -1.97936532      -0.24149925      -3.52571034       0.00000000
