10
Lattice="16.28999089631971 0.0 0.0 0.0 16.28999089631971 0.0 0.0 0.0 34.450931932916035" Properties=species:S:1:pos:R:3:initial_magmoms:R:1 pbc="T T T"
Si      -1.40282964       1.22914566      -1.37695973       0.00000000
Si      -1.35967743      -1.34864910       1.35104917       0.00000000
Si       1.35678337       1.36537893       1.35514884       0.00000000
Si       1.38437700      -1.34080058      -1.37183343       0.00000000
Si       0.10563204       2.38255911      -2.69018262       0.00000000
Si       2.70471734      -2.70780637      -0.00897447       0.00000000
Si       2.70525491       2.71112841       0.00177422       0.00000000
Si      -0.00165798      -2.70511027       2.71155169       0.00000000
Si       2.70940886       0.00918756       2.71007029       0.00000000
Si      -2.71368594      -2.71224332      -0.02688897       0.00000000
