10
Lattice="16.28999089631971 0.0 0.0 0.0 16.28999089631971 0.0 0.0 0.0 34.450931932916035" Properties=species:S:1:pos:R:3:initial_magmoms:R:1 pbc="T T T"
Si      -1.63497843       1.74257974       0.34840247       0.00000000
Si       1.53422478       0.63596584      -1.76454327       0.00000000
Si       1.34558658      -1.21836300       1.79124276       0.00000000
Si      -2.11486554      -0.89679840      -1.50244043       0.00000000
Si      -0.42938811      -0.07255698      -2.98228104       0.00000000
Si       3.34523036      -0.97323108      -1.44166895       0.00000000
Si      -1.94370651       1.92725947       2.75256210       0.00000000
Si       0.50697738      -0.59233830       3.87807467       0.00000000
Si       3.64037095      -1.25056833       1.21611858       0.00000000
Si      -3.89355435       0.87527734      -1.23775377       0.00000000
