10
Lattice="16.28999089631971 0.0 0.0 0.0 16.28999089631971 0.0 0.0 0.0 34.450931932916035" Properties=species:S:1:pos:R:3:initial_magmoms:R:1 pbc="T T T"
Si       0.49321233      -2.32070598      -0.12447129       0.00000000
Si      -1.00160694       1.01085966      -1.92939107       0.00000000
Si      -1.30137552       0.02358792       2.03436312       0.00000000
Si       2.06263721       1.21515255       0.33689585       0.00000000
Si      -1.29691206       3.15846810       0.99701053       0.00000000
Si      -0.62038836       3.27368727      -1.26641697       0.00000000
Si       0.81456516      -2.75783184       2.18470707       0.00000000
Si       3.55937219      -0.16255791       1.46299409       0.00000000
Si      -1.36181142      -2.27760264       2.82859535       0.00000000
Si       2.57032647      -2.64205881      -1.25628839       0.00000000
