10
Lattice="16.28999089631971 0.0 0.0 0.0 16.28999089631971 0.0 0.0 0.0 34.450931932916035" Properties=species:S:1:pos:R:3:initial_magmoms:R:1 pbc="T T T"
Si       0.38121858       2.26282761       0.66297410       0.00000000
Si       1.00160694      -1.01085966       1.92939107       0.00000000
Si      -2.31047586      -0.43427511      -0.68419589       0.00000000
Si       1.46158767       0.71993655      -1.94200012       0.00000000
Si      -0.29530512       2.14760844       2.92640160       0.00000000
Si      -3.02539509       1.87457175      -0.94095883       0.00000000
Si       3.06424415       0.20429289       2.26628692       0.00000000
Si      -1.18568394       3.26190960      -1.75882441       0.00000000
Si       3.63476556      -0.19155411      -1.53658132       0.00000000
Si       1.49481927      -3.33156564       1.80491978       0.00000000
