10
Lattice="16.28999089631971 0.0 0.0 0.0 16.28999089631971 0.0 0.0 0.0 34.450931932916035" Properties=species:S:1:pos:R:3:initial_magmoms:R:1 pbc="T T T"
Si       1.35703899      -1.35822762      -1.36484333       0.00000000
Si      -1.35961729       1.35956340      -1.36542900       0.00000000
Si      -1.35497464      -1.35848826       1.39044039       0.00000000
Si       1.36690258       1.35355239       1.39722723       0.00000000
Si      -2.71346290       2.71407690      -0.00506429       0.00000000
Si       2.71329715       2.71459818      -0.00244602       0.00000000
Si       2.71373698      -2.71534752      -0.00671794       0.00000000
Si      -2.71582495      -2.71612944      -0.00516764       0.00000000
Si       2.71347634       0.00034209      -2.72183185       0.00000000
Si      -0.00194891      -2.71508688      -2.72179740       0.00000000
