10
Lattice="16.28999089631971 0.0 0.0 0.0 16.28999089631971 0.0 0.0 0.0 34.450931932916035" Properties=species:S:1:pos:R:3:initial_magmoms:R:1 pbc="T T T"
Si       0.04240287       1.16994780      -2.12259200       0.00000000
Si       1.06588728       1.56779847       1.60556388       0.00000000
Si      -1.71274689      -1.00853019       1.55400803       0.00000000
Si       0.92256786      -2.07169704      -1.24016534       0.00000000
Si       2.18949003       2.38373199      -1.60403629       0.00000000
Si       2.43498801      -2.75501367       0.36240734       0.00000000
Si      -2.51468730      -1.82332341      -2.10708908       0.00000000
Si       2.33955011       0.28781172       3.05633133       0.00000000
Si      -0.39346866      -2.42033562       3.02520834       0.00000000
Si       2.00345823       3.46450833       0.51678808       0.00000000
