10
Lattice="16.28999089631971 0.0 0.0 0.0 16.28999089631971 0.0 0.0 0.0 34.450931932916035" Properties=species:S:1:pos:R:3:initial_magmoms:R:1 pbc="T T T"
Si      -1.35514881       1.35509994      -1.35419799       0.00000000
Si      -1.35485559      -1.35855342       1.35778089       0.00000000
Si       1.35951453       1.35602847       1.35764308       0.00000000
Si       1.35858600      -1.35785295      -1.36008910       0.00000000
Si      -2.69731449       0.00188964      -2.72039869       0.00000000
Si       0.00501732       2.69097768      -2.72670666       0.00000000
Si      -2.71070487       2.71270854       0.00117133       0.00000000
Si      -2.71230129      -0.00158013       2.71501056       0.00000000
Si      -2.71096551      -2.71648782       0.00041341       0.00000000
Si       0.00319284       2.71306692       2.71538952       0.00000000
