10
Lattice="16.28999089631971 0.0 0.0 0.0 16.28999089631971 0.0 0.0 0.0 34.450931932916035" Properties=species:S:1:pos:R:3:initial_magmoms:R:1 pbc="T T T"
Si       1.35500241       1.35615879      -1.36804727       0.00000000
Si      -1.35412254      -1.35723393      -1.37114786       0.00000000
Si      -1.30518738       1.31215950       1.51353364       0.00000000
Si       1.32844950      -1.33859817       1.47794581       0.00000000
Si       2.20068030       0.49619340       2.70681123       0.00000000
Si      -2.05242597      -0.50502258       2.93308508       0.00000000
Si       0.35891757       2.33776161       2.81674422       0.00000000
Si      -0.40956318      -2.34949041       2.92836530       0.00000000
Si      -2.71156824       2.71630863       0.02060167       0.00000000
Si      -2.70528030      -2.72772792       0.00685574       0.00000000
