10
Lattice="16.28999089631971 0.0 0.0 0.0 16.28999089631971 0.0 0.0 0.0 34.450931932916035" Properties=species:S:1:pos:R:3:initial_magmoms:R:1 pbc="T T T"
Si      -0.67652370      -0.11521917       2.26342749       0.00000000
Si      -0.38121858      -2.26282761      -0.66297410       0.00000000
Si       2.20249827       1.19125512      -0.21480168       0.00000000
Si      -1.56690252       0.99908199      -2.42179852       0.00000000
Si      -0.19028349       2.13899103       2.34366376       0.00000000
Si       1.08036909      -1.54289106      -2.60497422       0.00000000
Si       2.07343911       1.83646944       2.00835265       0.00000000
Si       0.62038836      -3.27368727       1.26641697       0.00000000
Si       2.32362582       0.72902637      -2.75304441       0.00000000
Si       2.68302557      -2.05853472       1.60331282       0.00000000
