10
Lattice="16.28999089631971 0.0 0.0 0.0 16.28999089631971 0.0 0.0 0.0 34.450931932916035" Properties=species:S:1:pos:R:3:initial_magmoms:R:1 pbc="T T T"
Si       1.60880040       0.79987158       1.45507037       0.00000000
Si      -0.14843448      -2.37806307       0.27161130       0.00000000
Si      -1.74472416       1.34421822       1.02891211       0.00000000
Si       2.10665538      -0.15087798      -2.22491133       0.00000000
Si      -0.30468816      -2.99366217      -2.10857047       0.00000000
Si       3.52002369      -0.45054882       0.96638363       0.00000000
Si       0.44255043      -1.17648009      -3.52812191       0.00000000
Si       2.05731297       3.12179931       1.05454362       0.00000000
Si       0.97919190       0.63814446       3.77920044       0.00000000
Si      -3.82648842       1.01864628      -0.32166853       0.00000000
