10
Lattice="16.28999089631971 0.0 0.0 0.0 16.28999089631971 0.0 0.0 0.0 34.450931932916035" Properties=species:S:1:pos:R:3:initial_magmoms:R:1 pbc="T T T"
Si      -0.24899265       1.87629849      -1.25787313       0.00000000
Si       0.14587695       0.19113057       2.28537275       0.00000000
Si      -0.48624021      -2.25421020      -0.08023627       0.00000000
Si       2.26372260      -0.30252159      -0.33531111       0.00000000
Si       0.19028349      -2.13899103      -2.34366376       0.00000000
Si       1.14088644      -2.00888280       2.28981692       0.00000000
Si      -2.20483521       2.70192456      -0.25693519       0.00000000
Si       2.39278176      -0.94773591      -2.55846544       0.00000000
Si       2.77397590      -2.33557875       0.67975172       0.00000000
Si      -1.79631459      -0.85695174       3.12390890       0.00000000
