10
Lattice="16.28999089631971 0.0 0.0 0.0 16.28999089631971 0.0 0.0 0.0 34.450931932916035" Properties=species:S:1:pos:R:3:initial_magmoms:R:1 pbc="T T T"
Si      -1.58063173      -1.23356025       1.17119454       0.00000000
Si       1.65615543      -0.99823491      -1.36505004       0.00000000
Si       2.22803217       0.03609864       0.96690040       0.00000000
Si      -2.51055290       1.94984784       0.61770555       0.00000000
Si      -0.61379091      -0.15653061       3.26023131       0.00000000
Si      -0.31991931      -1.97907210      -2.73106470       0.00000000
Si       1.68937074      -0.71672742       3.23859612       0.00000000
Si       2.33715888       0.76499469      -2.93501434       0.00000000
Si      -3.75380963      -0.32206959       0.76577574       0.00000000
Si      -2.30422864       2.60552034      -1.65750416       0.00000000
