10
Lattice="16.28999089631971 0.0 0.0 0.0 16.28999089631971 0.0 0.0 0.0 34.450931932916035" Properties=species:S:1:pos:R:3:initial_magmoms:R:1 pbc="T T T"
Si      -0.34194339      -0.84817143      -2.11797558       0.00000000
Si       1.40171770       1.81206702      -0.27591767       0.00000000
Si      -1.95501177       0.62628534       1.08172542       0.00000000
Si       0.84059658      -1.83630654       1.28588175       0.00000000
Si      -2.91744126      -1.26258903       0.02776747       0.00000000
Si      -0.12965211       2.64388329      -1.96170606       0.00000000
Si      -1.30649058      -3.05009073       0.76732604       0.00000000
Si       0.65456478      -0.75553020       3.40670612       0.00000000
Si      -1.20150153       0.87693957       3.27380331       0.00000000
Si       1.02426211      -2.74173732      -2.24944041       0.00000000
