10
Lattice="16.28999089631971 0.0 0.0 0.0 16.28999089631971 0.0 0.0 0.0 34.450931932916035" Properties=species:S:1:pos:R:3:initial_magmoms:R:1 pbc="T T T"
Si       1.28091106      -1.35848826       1.45317557       0.00000000
Si      -1.44590040       1.33656192       1.43429990       0.00000000
Si       1.42982936       1.40827394      -1.45711129       0.00000000
Si      -0.91417851      -2.00663478      -1.20751583       0.00000000
Si       2.79460393      -2.51616969       0.01321538       0.00000000
Si       2.65216254       2.70800466       0.08935543       0.00000000
Si       2.62147055      -0.01425375       2.81737123       0.00000000
Si      -0.09189189       2.70015614       2.81223804       0.00000000
Si      -2.78627418      -2.73963591       0.05853906       0.00000000
Si       0.94188780      -3.63910455      -1.07461302       0.00000000
