10
Lattice="16.28999089631971 0.0 0.0 0.0 16.28999089631971 0.0 0.0 0.0 34.450931932916035" Properties=species:S:1:pos:R:3:initial_magmoms:R:1 pbc="T T T"
Si      -1.36246302      -1.35042471       1.37735247       0.00000000
Si       1.35400851       1.36359422       1.37793814       0.00000000
Si      -1.29961620       1.44895219      -1.37509249       0.00000000
Si       1.44590040      -1.33656192      -1.43429990       0.00000000
Si      -2.72153772      -2.69677692       0.00319705       0.00000000
Si       2.72681146      -2.69505018       0.01887568       0.00000000
Si       2.71368594       2.71224332       0.02688897       0.00000000
Si      -0.00428427      -2.70710478       2.73695926       0.00000000
Si       2.71202796       0.00713305       2.73844065       0.00000000
Si      -2.71961550       0.00656459       2.73699371       0.00000000
