10
Lattice="16.28999089631971 0.0 0.0 0.0 16.28999089631971 0.0 0.0 0.0 34.450931932916035" Properties=species:S:1:pos:R:3:initial_magmoms:R:1 pbc="T T T"
Si       1.35695523      -1.35804843       1.35695407       0.00000000
Si       1.35863847       1.35723196      -1.35650620       0.00000000
Si      -1.35821133       1.35736741       1.35688516       0.00000000
Si      -1.35767376      -1.35700587      -1.35798759       0.00000000
Si       2.71398146      -0.00071676      -2.71187552       0.00000000
Si      -0.00076563       2.71355466       2.71335692       0.00000000
Si      -0.00149868      -2.71446786       2.71390813       0.00000000
Si       2.71414436       2.71465424      -0.00003445       0.00000000
Si       2.71470636       0.00022806       2.71418374       0.00000000
Si       2.71459559      -2.71510317      -0.00055122       0.00000000
