10
Lattice="16.28999089631971 0.0 0.0 0.0 16.28999089631971 0.0 0.0 0.0 34.450931932916035" Properties=species:S:1:pos:R:3:initial_magmoms:R:1 pbc="T T T"
Si       0.24899265      -1.87629849       1.25787313       0.00000000
Si       1.46425923       1.64054961       0.77376836       0.00000000
Si      -1.95584256       0.82562607       1.00093794       0.00000000
Si       0.62960850       0.16172712      -2.32413007       0.00000000
Si      -1.99596483       2.17087056      -0.89899757       0.00000000
Si       0.23951187       3.10967955      -0.63782491       0.00000000
Si       2.51271525      -2.17882008       0.92256202       0.00000000
Si       3.63138539       0.98334585       0.15316893       0.00000000
Si      -1.19679372       2.62127277       2.45897109       0.00000000
Si       1.07812107       2.48365485      -2.72465683       0.00000000
