10
Lattice="16.28999089631971 0.0 0.0 0.0 16.28999089631971 0.0 0.0 0.0 34.450931932916035" Properties=species:S:1:pos:R:3:initial_magmoms:R:1 pbc="T T T"
Si      -1.60880040      -0.79987158      -1.45507037       0.00000000
Si       1.91122329      -1.25042040      -0.48868674       0.00000000
Si       0.44851257       2.32192773      -0.40052676       0.00000000
Si      -0.62960850      -0.16172712       2.32413007       0.00000000
Si      -0.39009663       2.94795243       1.68630516       0.00000000
Si      -3.35352456       0.54434664      -0.42615827       0.00000000
Si       0.83465073       1.47882249       3.09789843       0.00000000
Si       3.57367481       0.28918008       0.22348332       0.00000000
Si      -2.62557333       2.00914344       1.42513250       0.00000000
Si       2.74329694       2.28972240      -0.97565094       0.00000000
