10
Lattice="16.28999089631971 0.0 0.0 0.0 16.28999089631971 0.0 0.0 0.0 34.450931932916035" Properties=species:S:1:pos:R:3:initial_magmoms:R:1 pbc="T T T"
Si       0.39690585      -0.59261391      -2.23417864       0.00000000
Si      -2.26414710       0.38810925      -0.54897591       0.00000000
Si       0.41164830      -1.91093103       1.38889010       0.00000000
Si       1.37219859       1.96260684       0.31398597       0.00000000
Si       2.73886118      -2.22332436       0.96962202       0.00000000
Si      -0.82784151       0.87651603      -3.64577191       0.00000000
Si      -3.69706437      -0.21315465       1.17794692       0.00000000
Si       3.56854346       1.48387143      -0.43821610       0.00000000
Si      -3.02319594      -1.40753745      -2.00700906       0.00000000
Si      -1.06735338      -2.23316352      -3.00794700       0.00000000
