10
Lattice="16.28999089631971 0.0 0.0 0.0 16.28999089631971 0.0 0.0 0.0 34.450931932916035" Properties=species:S:1:pos:R:3:initial_magmoms:R:1 pbc="T T T"
Si       1.35957037      -1.35451350      -1.36380980       0.00000000
Si      -1.35500241      -1.35615879       1.36804727       0.00000000
Si      -1.35583320       1.36098063      -1.36329304       0.00000000
Si       1.38211736       1.36146933       1.37349052       0.00000000
Si      -2.70912495      -2.71339272      -0.00310059       0.00000000
Si      -2.70958107       2.71511946      -0.00396186       0.00000000
Si       2.71763509      -2.71287144      -0.00048231       0.00000000
Si       2.71577803       2.71552671      -0.00502984       0.00000000
Si      -2.71187796       0.00200367      -2.71997150       0.00000000
Si       0.00236530      -2.71220355      -2.72024711       0.00000000
