10
Lattice="16.28999089631971 0.0 0.0 0.0 16.28999089631971 0.0 0.0 0.0 34.450931932916035" Properties=species:S:1:pos:R:3:initial_magmoms:R:1 pbc="T T T"
Si       0.10094261      -1.73534112       1.51222450       0.00000000
Si      -1.91122329       1.25042040       0.48868674       0.00000000
Si       1.66245151       1.53960048       0.71217006       0.00000000
Si       0.22207017      -2.19756987      -1.02601823       0.00000000
Si      -1.41336831       0.29967084      -3.19129496       0.00000000
Si       2.51350627      -1.96579575       1.69164506       0.00000000
Si       0.42839442      -1.54189737      -3.30122795       0.00000000
Si       0.83207365       3.54014280      -0.48696420       0.00000000
Si      -3.52002369       0.45054882      -0.96638363       0.00000000
Si       1.09055360       2.07203913       2.96598574       0.00000000
