10
Lattice="16.28999089631971 0.0 0.0 0.0 16.28999089631971 0.0 0.0 0.0 34.450931932916035" Properties=species:S:1:pos:R:3:initial_magmoms:R:1 pbc="T T T"
Si      -1.34055949      -1.34423451      -1.36419566       0.00000000
Si       1.35676641      -1.35575154       1.35416354       0.00000000
Si      -1.35534299       1.35794872       1.35536932       0.00000000
Si       1.35103233       1.35525261      -1.36515684       0.00000000
Si       0.17313338      -2.50191594      -2.80415584       0.00000000
Si       0.00061413      -2.71438641       2.71132431       0.00000000
Si      -2.71398146       0.00071676       2.71187552       0.00000000
Si       2.71515693       0.00068418       2.71142766       0.00000000
Si       0.00016290       2.71537100       2.71184107       0.00000000
Si      -2.71336244       2.71440989      -0.00513319       0.00000000
