10
Lattice="16.28999089631971 0.0 0.0 0.0 16.28999089631971 0.0 0.0 0.0 34.450931932916035" Properties=species:S:1:pos:R:3:initial_magmoms:R:1 pbc="T T T"
Si       1.25834223       1.90731465       0.23226831       0.00000000
Si       0.49168596      -1.68278958       1.55012055       0.00000000
Si      -2.16712616       0.65720376       0.62059943       0.00000000
Si       0.57189792      -0.53243865      -2.25381568       0.00000000
Si      -1.11867014      -3.16216593       0.76939309       0.00000000
Si       3.40329540       1.02089430      -0.22537812       0.00000000
Si       2.94007296      -0.39218175      -2.11528840       0.00000000
Si       0.71300190       3.15938590      -1.73911847       0.00000000
Si      -0.25847995       1.46810367      -3.45294994       0.00000000
Si      -3.63138539      -0.98334585      -0.15316893       0.00000000
