10
Lattice="16.28999089631971 0.0 0.0 0.0 16.28999089631971 0.0 0.0 0.0 34.450931932916035" Properties=species:S:1:pos:R:3:initial_magmoms:R:1 pbc="T T T"
Si      -1.66245151      -1.53960048      -0.71217006       0.00000000
Si       2.36817504       0.14025690       0.13852727       0.00000000
Si      -0.57189792       0.53243865       2.25381568       0.00000000
Si      -0.83037786       2.00054232      -1.19913426       0.00000000
Si       0.68644431       2.43975330       2.48608399       0.00000000
Si      -3.57367481      -0.28918008      -0.22348332       0.00000000
Si      -1.56150890      -3.27494160       0.80005444       0.00000000
Si       0.14110398       3.69182455       0.51469721       0.00000000
Si       0.85105476      -3.50539623       0.97947499       0.00000000
Si      -3.12516224       2.03274765      -0.62401008       0.00000000
