10
Lattice="10.86 0.0 0.0 0.0 10.86 0.0 0.0 0.0 10.86" Properties=species:S:1:pos:R:3:initial_magmoms:R:1 pbc="T T T"
Si       1.22410662       1.22398716      -1.45753146       0.00000000
Si       1.35550176      -1.31590620       1.31460300       0.00000000
Si      -1.40476272       1.34813868       1.33730040       0.00000000
Si      -2.65954884       0.01438950       2.64237918       0.00000000
Si       0.05545116      -2.70061050       2.64237918       0.00000000
Si      -2.65954884      -2.70061050      -0.07262082       0.00000000
Si       0.05545116       2.72938950       2.64237918       0.00000000
Si      -2.65954884       2.72938950      -0.07262082       0.00000000
Si       2.77045116       0.01438950       2.64237918       0.00000000
Si      -2.65954884       0.01438950      -2.78762082       0.00000000
