10
Lattice="10.86 0.0 0.0 0.0 10.86 0.0 0.0 0.0 10.86" Properties=species:S:1:pos:R:3:initial_magmoms:R:1 pbc="T T T"
Si      -1.35550176       1.31590620      -1.31460300       0.00000000
Si      -1.30005060      -1.38470430       1.32777618       0.00000000
Si       1.41494940       1.33029570       1.32777618       0.00000000
Si       1.41494940      -1.38470430      -1.38722382       0.00000000
Si      -0.13139514       2.53989336      -2.77213446       0.00000000
Si      -2.65755060      -0.02720430       2.68527618       0.00000000
Si       0.05744940       2.68779570       2.68527618       0.00000000
Si      -2.65755060      -2.74220430      -0.02972382       0.00000000
Si      -2.76026448       2.66404488       0.02269740       0.00000000
Si       0.05744940      -2.74220430       2.68527618       0.00000000
