10
Lattice="10.86 0.0 0.0 0.0 10.86 0.0 0.0 0.0 10.86" Properties=species:S:1:pos:R:3:initial_magmoms:R:1 pbc="T T T"
Si       1.29033090      -1.21302942      -1.42445190       0.00000000
Si      -1.42466910      -1.21302942       1.29054810       0.00000000
Si       1.29033090       1.50197058       1.29054810       0.00000000
Si       2.64783090      -2.57052942      -0.06695190       0.00000000
Si      -0.06716910      -2.57052942       2.64804810       0.00000000
Si       2.64783090       0.14447058       2.64804810       0.00000000
Si      -0.06716910      -2.57052942      -2.78195190       0.00000000
Si      -2.78216910      -2.57052942      -0.06695190       0.00000000
Si       2.64783090       0.14447058      -2.78195190       0.00000000
Si      -0.11147790       2.80910190      -2.64120630       0.00000000
