10
Lattice="16.28999089631971 0.0 0.0 0.0 16.28999089631971 0.0 0.0 0.0 34.33025523377368" Properties=species:S:1:pos:R:3:initial_magmoms:R:1 pbc="T T T"
Si       2.11496328      -0.09065385       1.02211526       0.00000000
Si      -1.65133359      -0.72027864       1.51962960       0.00000000
Si       0.51663735      -1.70132760      -1.54729980       0.00000000
Si      -0.32211846       2.21581467      -0.86292578       0.00000000
Si      -3.41482346       0.57997287       0.72993029       0.00000000
Si       1.57454253       3.31103928      -0.06790528       0.00000000
Si      -3.43879361      -0.05644485      -1.64366488       0.00000000
Si       2.72831436      -1.39769829      -2.29291903       0.00000000
Si       3.48146622      -1.60151877      -0.11016585       0.00000000
Si       3.36106683       1.82830815       0.29558366       0.00000000
