10
Lattice="16.28999089631971 0.0 0.0 0.0 16.28999089631971 0.0 0.0 0.0 34.33025523377368" Properties=species:S:1:pos:R:3:initial_magmoms:R:1 pbc="T T T"
Si       1.17063198       1.30165245       1.51685369       0.00000000
Si      -1.00737360       1.15339716      -1.83598308       0.00000000
Si       1.57894083      -1.14158691      -1.43435320       0.00000000
Si      -1.57550201      -1.42112331       1.38475766       0.00000000
Si      -2.82243798      -0.38654541      -1.90097029       0.00000000
Si      -2.80963730      -2.33243478      -0.47931929       0.00000000
Si       2.88461691       2.32878582      -0.08664961       0.00000000
Si       2.56986153      -2.67406866       0.17422614       0.00000000
Si      -1.50102413       3.35168446      -0.84534868       0.00000000
Si       2.34952299      -0.15009606       2.99135614       0.00000000
