10
Lattice="16.28999089631971 0.0 0.0 0.0 16.28999089631971 0.0 0.0 0.0 34.33025523377368" Properties=species:S:1:pos:R:3:initial_magmoms:R:1 pbc="T T T"
Si      -1.22595282      -1.41513007       1.43775189       0.00000000
Si       1.22515461      -1.51326103      -1.35226951       0.00000000
Si      -1.37793852       1.35111133      -1.40664866       0.00000000
Si       1.47263229       1.17338743       1.56257677       0.00000000
Si       1.92813327      -3.09226702       0.49033931       0.00000000
Si      -0.47343627      -3.62607403       0.81781580       0.00000000
Si      -0.03463254       1.73164899       3.35066911       0.00000000
Si       2.55480957      -0.11120694      -2.77666693       0.00000000
Si      -2.61008154       2.74796580       0.17542770       0.00000000
Si      -3.55622103      -1.36852438       0.74548191       0.00000000
