10
Lattice="16.28999089631971 0.0 0.0 0.0 16.28999089631971 0.0 0.0 0.0 34.33025523377368" Properties=species:S:1:pos:R:3:initial_magmoms:R:1 pbc="T T T"
Si      -2.17728882       1.00599709       0.31288612       0.00000000
Si       0.35554554      -1.28397684       2.05240113       0.00000000
Si       1.91655108       1.54597801      -0.08026418       0.00000000
Si       0.33876684      -0.59415657      -2.42182921       0.00000000
Si       2.12395536      -2.72588619       1.03505777       0.00000000
Si      -2.60097543       1.54599430      -2.00210727       0.00000000
Si       0.54833769       3.39282418      -1.17148628       0.00000000
Si      -1.85583825      -0.34297780      -3.21118521       0.00000000
Si       2.27419803       1.99457204       2.30246284       0.00000000
Si       1.23823548       0.37655149       3.66410593       0.00000000
