10
Lattice="16.28999089631971 0.0 0.0 0.0 16.28999089631971 0.0 0.0 0.0 34.33025523377368" Properties=species:S:1:pos:R:3:initial_magmoms:R:1 pbc="T T T"
Si      -0.00649971      -1.72755450      -1.60929825       0.00000000
Si       1.01354751      -1.58746050       1.51144526       0.00000000
Si       1.23312042       1.52666622      -1.47194283       0.00000000
Si      -1.69751574       1.11162960       1.48712226       0.00000000
Si       2.35581093      -0.25464528       2.87778675       0.00000000
Si       2.37130272      -2.89893582       0.07521763       0.00000000
Si       2.53970874       2.75603994       0.06650804       0.00000000
Si      -0.35464959       2.45974113       2.87747778       0.00000000
Si      -1.99029591      -1.76819805      -2.84419255       0.00000000
Si      -2.92110651       2.65916331       0.14752749       0.00000000
