10
Lattice="16.28999089631971 0.0 0.0 0.0 16.28999089631971 0.0 0.0 0.0 34.33025523377368" Properties=species:S:1:pos:R:3:initial_magmoms:R:1 pbc="T T T"
Si      -1.35019665       1.35863487      -1.36184766       0.00000000
Si      -1.35045729      -1.33556823       1.39281356       0.00000000
Si       1.36454814      -1.35679410      -1.36033712       0.00000000
Si       1.35208629       1.37720547       1.38289211       0.00000000
Si       0.19627821      -2.54383011       2.80656859       0.00000000
Si      -2.70752832       2.71353933      -0.00298673       0.00000000
Si      -2.71248048      -2.71441899      -0.00281508       0.00000000
Si      -2.70997182      -0.00017919      -2.71737854       0.00000000
Si       0.00506619       2.71503801      -2.71785917       0.00000000
Si       2.71726974       2.71565703      -0.00123589       0.00000000
