10
Lattice="16.28999089631971 0.0 0.0 0.0 16.28999089631971 0.0 0.0 0.0 34.33025523377368" Properties=species:S:1:pos:R:3:initial_magmoms:R:1 pbc="T T T"
Si      -1.77357375       0.19373697      -1.55049251       0.00000000
Si      -0.98251506      -0.66078756       2.05425496       0.00000000
Si       0.97383249       2.13021072       0.38261091       0.00000000
Si       2.12879349      -1.10530908      -0.32902135       0.00000000
Si      -0.00956223       0.99719235       3.41085008       0.00000000
Si       0.01011609      -2.74191651       2.32460587       0.00000000
Si       1.78109973      -2.16331200      -2.39127526       0.00000000
Si      -0.78473817       0.96088194      -3.51693063       0.00000000
Si       2.21750883      -2.53832409       1.62622510       0.00000000
Si      -3.35362230       1.70292402      -0.46884856       0.00000000
