10
Lattice="16.28999089631971 0.0 0.0 0.0 16.28999089631971 0.0 0.0 0.0 34.33025523377368" Properties=species:S:1:pos:R:3:initial_magmoms:R:1 pbc="T T T"
Si       0.99263115      -2.08112895       0.27035091       0.00000000
Si       0.97295283       1.65797991       1.35659512       0.00000000
Si       0.98251506       0.66078756      -2.05425496       0.00000000
Si      -2.26408194      -0.85024026       0.41611726       0.00000000
Si      -2.16630936      -2.08894815      -1.83045590       0.00000000
Si      -1.74703734      -0.42099876       3.04918064       0.00000000
Si      -0.05942592      -3.22603902      -1.50287642       0.00000000
Si      -0.51432417       1.60296858       3.21527051       0.00000000
Si       3.20002389      -1.87753653      -0.42802986       0.00000000
Si      -0.79105869       0.85452453      -3.60474747       0.00000000
