10
Lattice="16.28999089631971 0.0 0.0 0.0 16.28999089631971 0.0 0.0 0.0 34.33025523377368" Properties=species:S:1:pos:R:3:initial_magmoms:R:1 pbc="T T T"
Si      -1.35526284      -1.35640314       1.35601151       0.00000000
Si      -1.35669636       1.35739683      -1.35721307       0.00000000
Si       1.35832536      -1.35832536      -1.35793400       0.00000000
Si       1.35930276       1.35873261       1.35738472       0.00000000
Si       0.00050499      -2.71370223      -2.71360221       0.00000000
Si      -2.71259451      -0.00149868       2.71487243       0.00000000
Si      -0.00289962       2.71492398       2.71332757       0.00000000
Si      -2.71443528       2.71435383      -0.00003433       0.00000000
Si       2.71220355       0.00061902       2.71662328       0.00000000
Si       2.71477737       2.71484253      -0.00034330       0.00000000
