10
Lattice="16.28999089631971 0.0 0.0 0.0 16.28999089631971 0.0 0.0 0.0 34.33025523377368" Properties=species:S:1:pos:R:3:initial_magmoms:R:1 pbc="T T T"
Si      -1.37883447       1.18547217      -1.55959004       0.00000000
Si       1.07917992       1.67795145       1.33582531       0.00000000
Si      -1.82451258      -0.86060070       1.39590329       0.00000000
Si       1.32305751      -1.51627320      -1.55450916       0.00000000
Si      -2.61307890       2.55870288      -0.02035785       0.00000000
Si       2.66075973       2.51178768      -0.17075878       0.00000000
Si      -0.68033556       3.49516611       1.22023527       0.00000000
Si      -2.72427444      -2.71884987       0.02694927       0.00000000
Si      -0.02686221       2.53648332      -2.94193287       0.00000000
Si       2.86733322      -2.67978645      -0.21401493       0.00000000
