10
Lattice="16.28999089631971 0.0 0.0 0.0 16.28999089631971 0.0 0.0 0.0 34.33025523377368" Properties=species:S:1:pos:R:3:initial_magmoms:R:1 pbc="T T T"
Si       1.58157981       0.83383623      -1.50658409       0.00000000
Si      -1.07917992      -1.67795145      -1.33582531       0.00000000
Si      -1.75951548       1.81721466      -0.11559003       0.00000000
Si       1.28039400       0.12992904       2.32814189       0.00000000
Si       2.73720870       2.27774925      -0.02125044       0.00000000
Si       0.26282286       2.22107634      -2.91436566       0.00000000
Si      -1.33081155       2.82093930       2.14869755       0.00000000
Si       2.67284691      -2.69356779      -0.03858723       0.00000000
Si      -2.45801439      -0.49247928      -2.89541534       0.00000000
Si      -2.90369250      -2.53855215       0.06007798       0.00000000
