10
Lattice="16.28999089631971 0.0 0.0 0.0 16.28999089631971 0.0 0.0 0.0 34.33025523377368" Properties=species:S:1:pos:R:3:initial_magmoms:R:1 pbc="T T T"
Si      -1.59487245       0.06090831       1.92610005       0.00000000
Si       1.40838453      -1.66931775       1.22819990       0.00000000
Si      -1.28039400      -0.12992904      -2.32814189       0.00000000
Si       2.57101812       1.30794039      -0.44560696       0.00000000
Si      -0.20963601       3.22481727      -0.50692083       0.00000000
Si       1.45681470       2.14782021      -2.34939233       0.00000000
Si      -2.34927864      -2.15366832       1.86118150       0.00000000
Si      -0.31231188      -3.37664007       1.56745167       0.00000000
Si      -2.61120555       2.69101026      -0.17944434       0.00000000
Si       2.89155645      -2.49468318      -0.47945661       0.00000000
