10
Lattice="16.28999089631971 0.0 0.0 0.0 16.28999089631971 0.0 0.0 0.0 34.33025523377368" Properties=species:S:1:pos:R:3:initial_magmoms:R:1 pbc="T T T"
Si      -0.15805535       1.26576069      -1.95888546       0.00000000
Si      -1.87789069      -0.97287790       1.02444972       0.00000000
Si       1.61215125      -1.60917085      -0.71558024       0.00000000
Si       0.86344656       1.60377819       1.56542618       0.00000000
Si       2.64914007       0.20015034       2.17327802       0.00000000
Si       1.62316329       2.73182811      -1.33874338       0.00000000
Si       3.50881224      -0.51394624       0.07944026       0.00000000
Si      -1.01609038       1.74054903       2.98615026       0.00000000
Si      -1.48055374      -3.24501265       0.87727583       0.00000000
Si       1.44625389      -1.65861100      -3.06274110       0.00000000
