10
Lattice="16.28999089631971 0.0 0.0 0.0 16.28999089631971 0.0 0.0 0.0 34.33025523377368" Properties=species:S:1:pos:R:3:initial_magmoms:R:1 pbc="T T T"
Si       0.15805535      -1.26576069       1.95888546       0.00000000
Si      -2.18680448       0.83865807      -0.15839989       0.00000000
Si       0.73517259      -0.91813698      -2.07505911       0.00000000
Si       1.78121865       1.46606742       0.62014208       0.00000000
Si       2.00323506       2.36253870      -1.52419552       0.00000000
Si       1.60430925      -2.92437170      -1.10385564       0.00000000
Si      -2.01779573       2.63660166       1.31440322       0.00000000
Si       1.77020661      -2.87493155       1.24330522       0.00000000
Si       1.02150192       0.33801750       3.52431164       0.00000000
Si      -2.25665600       2.03149332      -2.14498988       0.00000000
