10
Lattice="16.28999089631971 0.0 0.0 0.0 16.28999089631971 0.0 0.0 0.0 34.33025523377368" Properties=species:S:1:pos:R:3:initial_magmoms:R:1 pbc="T T T"
Si       1.35259128      -1.35707103       1.35659512       0.00000000
Si       1.35591444       1.35759231      -1.35686977       0.00000000
Si      -1.35894438      -1.35764118      -1.35676678       0.00000000
Si      -1.35912357       1.35685926       1.36119538       0.00000000
Si       2.71313208       0.00024435      -2.71394551       0.00000000
Si       2.71479366      -2.71326240       0.00065228       0.00000000
Si      -0.00120546      -2.71459818      -2.71394551       0.00000000
Si      -0.00071676       2.71528236      -2.71363654       0.00000000
Si       2.71451673       2.71502172      -0.00020598       0.00000000
Si      -2.71595839      -2.71366965       0.00010299       0.00000000
