10
Lattice="16.28999089631971 0.0 0.0 0.0 16.28999089631971 0.0 0.0 0.0 34.33025523377368" Properties=species:S:1:pos:R:3:initial_magmoms:R:1 pbc="T T T"
Si      -0.98722287      -1.61557704      -1.39034178       0.00000000
Si       2.09552931       0.30051792      -1.03076649       0.00000000
Si      -0.63978975       2.24022102       0.35940364       0.00000000
Si       0.01830996      -1.11698901       2.12178261       0.00000000
Si       1.71134595       1.95250215      -2.64511331       0.00000000
Si       3.37186710       1.38295584       0.71228453       0.00000000
Si       0.82083681       3.48385175      -1.12740621       0.00000000
Si      -1.05865452      -0.60960438      -3.55342371       0.00000000
Si       0.72438372      -3.09615885      -2.01171975       0.00000000
Si       1.59541002      -3.02161581       1.64174238       0.00000000
