10
Lattice="16.28999089631971 0.0 0.0 0.0 16.28999089631971 0.0 0.0 0.0 34.33025523377368" Properties=species:S:1:pos:R:3:initial_magmoms:R:1 pbc="T T T"
Si      -1.35731538       1.35923375      -1.35381437       0.00000000
Si       1.35738054       1.35748095       1.35735039       0.00000000
Si      -1.35716877      -1.35750560       1.35796833       0.00000000
Si       1.35778779      -1.36050296      -1.35789967       0.00000000
Si      -2.71298547       2.71185761      -0.00226580       0.00000000
Si      -2.71251306      -2.71385987       0.00048062       0.00000000
Si       2.71437012      -2.71324085      -0.00102991       0.00000000
Si       0.00048870      -2.71496759       2.71442614       0.00000000
Si       0.00065160       2.71456175       2.71487243       0.00000000
Si      -2.71480995      -0.00005366       2.71497542       0.00000000
