10
Lattice="16.28999089631971 0.0 0.0 0.0 16.28999089631971 0.0 0.0 0.0 34.33025523377368" Properties=species:S:1:pos:R:3:initial_magmoms:R:1 pbc="T T T"
Si       1.35702216       1.35669799      -1.35752204       0.00000000
Si      -1.35843939      -1.35791742      -1.35741905       0.00000000
Si      -1.36106208       1.35545995       1.35892958       0.00000000
Si       1.35909099      -1.35924316       1.36009681       0.00000000
Si       2.71375110      -0.00038281      -2.71504408       0.00000000
Si       2.71437012      -2.71501099       0.00003433       0.00000000
Si      -0.00079821      -2.71536937      -2.71442614       0.00000000
Si      -2.71415835       2.71577269       0.00013732       0.00000000
Si      -2.71461447      -2.71536937      -0.00085826       0.00000000
Si      -0.00174303       2.71577269      -2.71500975       0.00000000
