10
Lattice="16.28999089631971 0.0 0.0 0.0 16.28999089631971 0.0 0.0 0.0 34.33025523377368" Properties=species:S:1:pos:R:3:initial_magmoms:R:1 pbc="T T T"
Si       1.27146708      -1.40251021      -1.46638334       0.00000000
Si      -1.32965496      -1.40205409       1.42439742       0.00000000
Si      -1.43106021       1.30970867      -1.44904655       0.00000000
Si       1.05042807       1.74128778       1.57788807       0.00000000
Si       2.34087300       0.27567160       2.86633760       0.00000000
Si       2.58075954       2.72306979       0.03233912       0.00000000
Si       2.48132538      -2.84065657      -0.05678227       0.00000000
Si      -2.55480957       0.11120694       2.77666693       0.00000000
Si      -2.71272483      -2.72162554      -0.04806238       0.00000000
Si      -2.60936478       2.83892427      -0.02087281       0.00000000
