10
Lattice="16.28999089631971 0.0 0.0 0.0 16.28999089631971 0.0 0.0 0.0 34.33025523377368" Properties=species:S:1:pos:R:3:initial_magmoms:R:1 pbc="T T T"
Si       1.67448168      -1.45041273      -0.83044934       0.00000000
Si      -2.00127537      -1.23077466       0.27824687       0.00000000
Si      -0.17454735       0.50222070       2.31018716       0.00000000
Si       0.32008221       2.10820293      -1.07731834       0.00000000
Si      -3.29046597       0.63079767       0.91998269       0.00000000
Si       2.02313655       3.15983646       0.15379963       0.00000000
Si      -1.46640951      -2.86757594       1.94487871       0.00000000
Si       0.76361004      -2.31434311      -2.91687177       0.00000000
Si      -2.20263606       1.73048670       2.66797728       0.00000000
Si       3.66516855      -0.20802330      -1.26098531       0.00000000
