10
Lattice="16.28999089631971 0.0 0.0 0.0 16.28999089631971 0.0 0.0 0.0 34.33025523377368" Properties=species:S:1:pos:R:3:initial_magmoms:R:1 pbc="T T T"
Si       0.47350306       0.44680212       2.25402283       0.00000000
Si      -1.22676147      -1.98919145       0.26870306       0.00000000
Si      -1.16111277       1.53458316      -1.35776235       0.00000000
Si       1.87953694      -0.13677084      -1.42072408       0.00000000
Si      -0.86180031      -2.71342693      -1.96170054       0.00000000
Si       1.01609038      -1.74054903      -2.98615026       0.00000000
Si       1.29312952       2.61814509       2.14337635       0.00000000
Si       2.54444587      -0.66621213       2.51585983       0.00000000
Si      -0.30976983      -3.23933280       2.15710846       0.00000000
Si      -3.30912846       2.00435418      -0.62319747       0.00000000
