10
Lattice="16.28999089631971 0.0 0.0 0.0 16.28999089631971 0.0 0.0 0.0 34.33025523377368" Properties=species:S:1:pos:R:3:initial_magmoms:R:1 pbc="T T T"
Si      -0.83810421       2.22697332       0.20742352       0.00000000
Si       1.80913482       0.20342952      -1.63343446       0.00000000
Si      -1.99572048      -1.04400981      -1.18511540       0.00000000
Si       1.03035879       0.27662049       2.61576337       0.00000000
Si      -0.24133635       2.27704878       2.57807319       0.00000000
Si      -0.60230646       2.81268027      -2.15243955       0.00000000
Si       1.56893877       2.23977726      -2.76506329       0.00000000
Si      -2.17370502      -0.08285094      -3.27016462       0.00000000
Si       3.91644180       0.34730280      -0.39802520       0.00000000
Si       1.63665630      -1.29852477      -3.45311065       0.00000000
