10
Lattice="16.28999089631971 0.0 0.0 0.0 16.28999089631971 0.0 0.0 0.0 34.33025523377368" Properties=species:S:1:pos:R:3:initial_magmoms:R:1 pbc="T T T"
Si      -0.34769376      -1.05800292      -2.06225391       0.00000000
Si       1.84316463       1.52723637      -0.13093567       0.00000000
Si      -2.12879349       1.10530908       0.32902135       0.00000000
Si       0.08871534      -1.43301501       1.95524645       0.00000000
Si      -1.64579499      -2.84881149      -1.01325805       0.00000000
Si       1.01377557       2.88258066       1.61891275       0.00000000
Si      -1.15496100       3.23551980       0.71163226       0.00000000
Si      -0.87656490       0.84321927      -3.48163911       0.00000000
Si       3.69926352       0.04439025      -0.04205459       0.00000000
Si      -2.11867740      -1.63660743       2.65362722       0.00000000
