10
Lattice="16.28999089631971 0.0 0.0 0.0 16.28999089631971 0.0 0.0 0.0 34.33025523377368" Properties=species:S:1:pos:R:3:initial_magmoms:R:1 pbc="T T T"
Si      -0.82938906       1.35534429       1.74984842       0.00000000
Si       1.85609889      -1.48284612       0.08888108       0.00000000
Si      -1.84316463      -1.52723637       0.13093567       0.00000000
Si       0.30669183       1.66558734      -1.79320755       0.00000000
Si      -2.99812563       1.70828343       0.84256793       0.00000000
Si       0.02989215       3.48716772       1.30915068       0.00000000
Si      -0.64163052       3.63972357      -0.94205706       0.00000000
Si       3.55915323      -0.43121259       1.31999905       0.00000000
Si      -2.19085839      -2.58523929      -1.93131825       0.00000000
Si       2.97243630      -1.53142290      -2.03434340       0.00000000
