10
Lattice="16.28999089631971 0.0 0.0 0.0 16.28999089631971 0.0 0.0 0.0 34.33025523377368" Properties=species:S:1:pos:R:3:initial_magmoms:R:1 pbc="T T T"
Si      -1.38194586       1.28796885      -1.38639380       0.00000000
Si       1.32703227      -1.44111114      -1.38093529       0.00000000
Si       1.76650389       0.94609062       1.32501127       0.00000000
Si      -1.67500296      -0.91500930       1.48756512       0.00000000
Si      -0.17589942      -0.58619565       3.37483763       0.00000000
Si      -2.55969657      -2.57917941      -0.02368789       0.00000000
Si       3.49474257      -0.82502334       1.18885740       0.00000000
Si      -2.76627006       2.61239472       0.01956826       0.00000000
Si      -0.02166570       2.63867049      -2.74813847       0.00000000
Si       2.69418681      -0.07809426      -2.74566669       0.00000000
