10
Lattice="16.28999089631971 0.0 0.0 0.0 16.28999089631971 0.0 0.0 0.0 34.33025523377368" Properties=species:S:1:pos:R:3:initial_magmoms:R:1 pbc="T T T"
Si       0.60365853       2.04553530      -0.93323418       0.00000000
Si       1.36756179      -1.51834203      -1.17910761       0.00000000
Si       0.60030279      -0.37418130       2.31612629       0.00000000
Si      -2.32819938      -0.16549011       0.71842965       0.00000000
Si      -1.59493761      -1.03237875       2.77333689       0.00000000
Si      -0.68256729       3.50735103       0.38374381       0.00000000
Si       2.81619891       2.50681923      -0.37001170       0.00000000
Si       1.39944132       1.61103213       3.15780163       0.00000000
Si      -3.49267374      -1.22201064      -1.00213504       0.00000000
Si       1.23732324      -3.72003327      -0.40348372       0.00000000
