10
Lattice="16.28999089631971 0.0 0.0 0.0 16.28999089631971 0.0 0.0 0.0 34.33025523377368" Properties=species:S:1:pos:R:3:initial_magmoms:R:1 pbc="T T T"
Si      -1.35534429      -1.35635427      -1.35748771       0.00000000
Si       1.35765747      -1.35746199       1.35645780       0.00000000
Si      -1.35764118       1.35745194       1.35700709       0.00000000
Si       1.35716877       1.35750560      -1.35796833       0.00000000
Si       0.00087966      -2.71319724       2.71343056       0.00000000
Si      -2.71381626       0.00000000       2.71356788       0.00000000
Si      -0.00014661       2.71673936      -2.71178271       0.00000000
Si      -0.00066789      -2.71572219      -2.71329324       0.00000000
Si       2.71454931       2.71498655      -0.00061794       0.00000000
Si       2.71516833       0.00035838       2.71446047       0.00000000
