10
Lattice="16.28999089631971 0.0 0.0 0.0 16.28999089631971 0.0 0.0 0.0 34.33025523377368" Properties=species:S:1:pos:R:3:initial_magmoms:R:1 pbc="T T T"
Si       2.24138997      -0.31555359       0.59827369       0.00000000
Si      -0.08943210      -0.01782126      -2.35770026       0.00000000
Si      -0.60007473       1.99663272       1.14021140       0.00000000
Si      -1.97122032      -1.40004405       0.15925814       0.00000000
Si      -2.38775562      -0.42435450      -2.51472693       0.00000000
Si      -1.23364170      -2.78852220       1.87741972       0.00000000
Si       3.20930919       1.80133191       0.21171480       0.00000000
Si      -3.68282691       0.08053776       0.78063611       0.00000000
Si      -0.98425809       3.64861695      -0.47413542       0.00000000
Si      -2.69560404       1.69611480       2.17097789       0.00000000
