10
Lattice="16.28999089631971 0.0 0.0 0.0 16.28999089631971 0.0 0.0 0.0 34.33025523377368" Properties=species:S:1:pos:R:3:initial_magmoms:R:1 pbc="T T T"
Si      -0.99430902      -1.99391948       0.77318644       0.00000000
Si       0.17247852       1.50195429       1.81967620       0.00000000
Si       2.30883057      -0.29128475      -0.72780182       0.00000000
Si      -1.93302027       0.79662987      -1.25792992       0.00000000
Si      -0.72550773      -3.24346022      -1.21903371       0.00000000
Si      -0.06771753       3.53830203       0.68804736       0.00000000
Si       3.22582222      -1.54142610       1.16060359       0.00000000
Si      -1.11943251      -2.10853592      -3.21235244       0.00000000
Si      -3.81036132       1.21567383       0.18294603       0.00000000
Si      -1.63665630       1.29852477       3.45311065       0.00000000
