10
Lattice="16.28999089631971 0.0 0.0 0.0 16.28999089631971 0.0 0.0 0.0 34.33025523377368" Properties=species:S:1:pos:R:3:initial_magmoms:R:1 pbc="T T T"
Si       1.35562345      -1.35047358       1.36040578       0.00000000
Si      -1.36208835      -1.32631551      -1.37875188       0.00000000
Si      -1.35887922       1.36445040       1.35566821       0.00000000
Si       1.36643658       1.35156501      -1.37821290       0.00000000
Si       2.70280978      -2.69860140       0.00054928       0.00000000
Si      -0.00223173      -2.70757719       2.71494109       0.00000000
Si      -2.58866019       0.24733107      -2.81957634       0.00000000
Si      -2.71733490      -2.70826137      -0.00641976       0.00000000
Si       2.71176765       0.00531054       2.71446047       0.00000000
Si       2.71087007       2.72012049      -0.00463459       0.00000000
