10
Lattice="16.28999089631971 0.0 0.0 0.0 16.28999089631971 0.0 0.0 0.0 34.33025523377368" Properties=species:S:1:pos:R:3:initial_magmoms:R:1 pbc="T T T"
Si      -0.16900875      -1.79794359      -1.47280310       0.00000000
Si      -0.00135207      -0.62723016       2.27287015       0.00000000
Si      -1.81104075       1.56991617      -0.05801816       0.00000000
Si       1.44118512       1.95064605      -0.98929552       0.00000000
Si       2.15251892       1.97130177       1.40074386       0.00000000
Si       0.28403244       1.65221325       2.81418992       0.00000000
Si      -0.23886027      -0.60510834      -3.45939309       0.00000000
Si      -0.71545680       3.10133907      -1.50730503       0.00000000
Si       2.01779573      -2.63660166      -1.31440322       0.00000000
Si      -2.01912921       2.04423210       2.23181114       0.00000000
