10
Lattice="16.28999089631971 0.0 0.0 0.0 16.28999089631971 0.0 0.0 0.0 34.33025523377368" Properties=species:S:1:pos:R:3:initial_magmoms:R:1 pbc="T T T"
Si       1.82451258       0.86060070      -1.39590329       0.00000000
Si      -1.80367767       1.67966190      -0.07048005       0.00000000
Si      -0.89976186      -1.85824917      -1.36895402       0.00000000
Si      -0.00249237       0.35445411       2.49800809       0.00000000
Si       0.44567811       2.04607287      -2.95549332       0.00000000
Si      -0.78856632       3.41930358      -1.41626114       0.00000000
Si      -2.27457270      -0.67761513      -2.95628292       0.00000000
Si      -0.89963154       2.61884556       2.64672684       0.00000000
Si       2.90369250       2.53855215      -0.06007798       0.00000000
Si      -2.10845542      -0.56739699       3.28956123       0.00000000
