10
Lattice="16.28999089631971 0.0 0.0 0.0 16.28999089631971 0.0 0.0 0.0 34.33025523377368" Properties=species:S:1:pos:R:3:initial_magmoms:R:1 pbc="T T T"
Si       1.51622433      -1.76234994       0.42332661       0.00000000
Si       1.15489584       1.99862010       0.72186268       0.00000000
Si      -0.44142642       0.03583800      -2.38317332       0.00000000
Si      -2.11846563      -0.69976953       0.99314051       0.00000000
Si       1.93965030       1.26671040      -2.54555552       0.00000000
Si       1.62554652       1.07074170       2.90643536       0.00000000
Si       2.22957972      -1.26514656       2.65706025       0.00000000
Si      -3.42419058      -1.34205165      -0.90360715       0.00000000
Si      -3.06678798       1.27436670       1.84429100       0.00000000
Si      -2.26155699       1.63520649      -2.57741401       0.00000000
