10
Lattice="16.28999089631971 0.0 0.0 0.0 16.28999089631971 0.0 0.0 0.0 34.33025523377368" Properties=species:S:1:pos:R:3:initial_magmoms:R:1 pbc="T T T"
Si      -2.23738263      -0.68393565      -0.26499539       0.00000000
Si       0.31988673      -0.56412270       2.28155571       0.00000000
Si       1.78342920      -0.73500480      -1.45405877       0.00000000
Si      -0.24744510       2.40914439      -0.37711806       0.00000000
Si      -3.29716116       1.19542536       0.64255975       0.00000000
Si       2.53242711      -0.10283877       2.84477819       0.00000000
Si      -2.52340245       2.67305868      -1.05091836       0.00000000
Si      -0.96633909       0.89769303       3.59853369       0.00000000
Si       1.31277852       0.19287360      -3.63863146       0.00000000
Si      -2.90890530      -0.53137980      -2.51620313       0.00000000
