10
Lattice="16.28999089631971 0.0 0.0 0.0 16.28999089631971 0.0 0.0 0.0 34.33025523377368" Properties=species:S:1:pos:R:3:initial_magmoms:R:1 pbc="T T T"
Si       1.12430552       1.84650408       0.79677134       0.00000000
Si      -0.49612824       0.73197486      -2.15717712       0.00000000
Si       1.70602794      -1.55253474       0.35614227       0.00000000
Si      -1.91288583      -0.16381224       1.37063621       0.00000000
Si      -2.71202436      -2.14902567       0.52896087       0.00000000
Si      -0.28733931       3.56837337       0.26190566       0.00000000
Si       1.26326248      -2.07223461       2.68263630       0.00000000
Si       0.73959858      -3.58474482      -0.10879264       0.00000000
Si      -0.87544089      -0.43098453       3.60292797       0.00000000
Si      -0.77788008       3.08304540      -2.00897333       0.00000000
