10
Lattice="16.28999089631971 0.0 0.0 0.0 16.28999089631971 0.0 0.0 0.0 34.33025523377368" Properties=species:S:1:pos:R:3:initial_magmoms:R:1 pbc="T T T"
Si      -1.35721764      -1.35702216      -1.35625182       0.00000000
Si       1.35720366       1.35811359      -1.35625182       0.00000000
Si       1.35551348      -1.35961227       1.35848329       0.00000000
Si      -1.35606105       1.35969372       1.35927289       0.00000000
Si       0.00715131      -2.69125461       2.73382274       0.00000000
Si      -2.71477737       0.00063531      -2.71329324       0.00000000
Si       2.71481062       0.00035838      -2.71391118       0.00000000
Si       0.00053757       2.71500543      -2.71377386       0.00000000
Si       0.00084708      -2.71518462      -2.71363654       0.00000000
Si       2.71596558      -2.71326240       0.00068661       0.00000000
