10
Lattice="16.28999089631971 0.0 0.0 0.0 16.28999089631971 0.0 0.0 0.0 34.33025523377368" Properties=species:S:1:pos:R:3:initial_magmoms:R:1 pbc="T T T"
Si      -2.10596305      -0.92185110       0.79155314       0.00000000
Si      -0.89713917       2.26439145       0.14871875       0.00000000
Si       1.83730023       0.16035876       1.63123732       0.00000000
Si       0.00249237      -0.35445411      -2.49800809       0.00000000
Si      -1.80118530       1.32520779      -2.56848814       0.00000000
Si       0.84846465      -0.60678621       3.59767544       0.00000000
Si       2.59170642       2.37493539       1.69615587       0.00000000
Si      -3.39242508       1.79365932      -0.77401037       0.00000000
Si       0.64145133       3.72040794       1.45374980       0.00000000
Si      -2.87242384       2.48513724       1.49178774       0.00000000
