10
Lattice="16.28999089631971 0.0 0.0 0.0 16.28999089631971 0.0 0.0 0.0 34.33025523377368" Properties=species:S:1:pos:R:3:initial_magmoms:R:1 pbc="T T T"
Si       1.51568676      -1.18122048      -1.35022686       0.00000000
Si       1.36130643       1.34066700       1.37951745       0.00000000
Si      -1.35152103      -1.37622807       1.37687402       0.00000000
Si      -1.20584933       1.44230031      -1.58926513       0.00000000
Si       0.21551670      -2.44423305      -2.76241098       0.00000000
Si      -2.70226745       2.68871337      -0.01415094       0.00000000
Si       2.71917567       2.71332756       0.01733336       0.00000000
Si       0.00954594       2.69869914       2.73782909       0.00000000
Si      -2.69595452      -2.74478355       0.00329571       0.00000000
Si      -2.70617015      -0.01658322       2.73848136       0.00000000
