10
Lattice="16.28999089631971 0.0 0.0 0.0 16.28999089631971 0.0 0.0 0.0 34.33025523377368" Properties=species:S:1:pos:R:3:initial_magmoms:R:1 pbc="T T T"
Si      -1.35701401      -1.35602847       1.35686977       0.00000000
Si       1.35773892      -1.35695700      -1.35717874       0.00000000
Si       1.35894438       1.35764118       1.35676678       0.00000000
Si      -1.35816898       1.35759231      -1.35772802       0.00000000
Si       2.71153566       0.00057015       2.71336190       0.00000000
Si      -2.71411967       0.00141723      -2.71466645       0.00000000
Si       2.71443528      -2.71435383       0.00003433       0.00000000
Si      -2.71490008      -2.71507059       0.00017165       0.00000000
Si       2.71485882       2.71523349      -0.00010299       0.00000000
Si       0.00184077      -2.71585251       2.71490676       0.00000000
