10
Lattice="16.28999089631971 0.0 0.0 0.0 16.28999089631971 0.0 0.0 0.0 34.33025523377368" Properties=species:S:1:pos:R:3:initial_magmoms:R:1 pbc="T T T"
Si      -1.97528468       0.22074579       1.34306900       0.00000000
Si       0.89713917      -2.26439145      -0.14871875       0.00000000
Si       1.53859050       1.45601649       1.30503105       0.00000000
Si      -2.49528591      -0.47073213      -0.92272912       0.00000000
Si      -0.90404613      -0.93918366      -2.71720689       0.00000000
Si      -1.20882389      -3.18624255       0.64283439       0.00000000
Si       2.47251249       2.74064589      -0.55810727       0.00000000
Si       2.73443940      -2.10403269       1.48251857       0.00000000
Si      -1.21450747       0.38341773       3.58552252       0.00000000
Si       3.48884559       0.11054394       1.54743712       0.00000000
