10
Lattice="16.28999089631971 0.0 0.0 0.0 16.28999089631971 0.0 0.0 0.0 34.33025523377368" Properties=species:S:1:pos:R:3:initial_magmoms:R:1 pbc="T T T"
Si      -2.13935578      -0.70105644      -0.60404118       0.00000000
Si      -0.14853859       2.36791440      -0.19794836       0.00000000
Si       0.53000900      -0.31480425       2.30263450       0.00000000
Si       1.39428798      -1.11074994      -1.67809814       0.00000000
Si      -1.53532258      -3.03694470      -0.85341629       0.00000000
Si       2.72575764       0.74754810      -2.14011498       0.00000000
Si       1.41370729       2.73246831      -2.06304351       0.00000000
Si      -0.12456844       3.00433212       2.17564681       0.00000000
Si       1.63892142       1.70408061       2.96534611       0.00000000
Si      -2.61000646       0.22682196      -2.78861386       0.00000000
