10
Lattice="16.28999089631971 0.0 0.0 0.0 16.28999089631971 0.0 0.0 0.0 34.33025523377368" Properties=species:S:1:pos:R:3:initial_magmoms:R:1 pbc="T T T"
Si      -1.35595070      -1.35617508      -1.35693843       0.00000000
Si      -1.35760696       1.35775521       1.35765936       0.00000000
Si       1.35816898      -1.35759231       1.35772802       0.00000000
Si       1.35976540       1.35910728      -1.35759070       0.00000000
Si       2.71152589       0.00107514      -2.71590234       0.00000000
Si       0.00115496      -2.71362078       2.71459779       0.00000000
Si      -2.71481062      -0.00035838       2.71391118       0.00000000
Si      -2.71427305       2.71464705       0.00013732       0.00000000
Si      -2.71396354      -2.71554300       0.00027464       0.00000000
Si       2.71590790      -2.71454931       0.00054928       0.00000000
