10
Lattice="16.28999089631971 0.0 0.0 0.0 16.28999089631971 0.0 0.0 0.0 34.33025523377368" Properties=species:S:1:pos:R:3:initial_magmoms:R:1 pbc="T T T"
Si       1.35759231       1.35749080      -1.35789967       0.00000000
Si      -1.35789041      -1.35754344      -1.35824298       0.00000000
Si       1.35770634      -1.35839052       1.35978784       0.00000000
Si      -1.36142765       1.35925389       1.35827731       0.00000000
Si      -2.71405151       2.71549480      -0.00127022       0.00000000
Si      -2.71455650      -0.00065160      -2.71576502       0.00000000
Si      -0.00047567       2.71464283      -2.71579935       0.00000000
Si      -2.71509407      -2.71565703      -0.00199116       0.00000000
Si       2.71538010       2.71547851      -0.00181950       0.00000000
Si       2.71611315       0.00003258      -2.71504408       0.00000000
