10
Lattice="16.28999089631971 0.0 0.0 0.0 16.28999089631971 0.0 0.0 0.0 34.33025523377368" Properties=species:S:1:pos:R:3:initial_magmoms:R:1 pbc="T T T"
Si       1.27951923      -1.39132890      -1.43092017       0.00000000
Si      -1.66832962      -1.03446387       1.35910123       0.00000000
Si       1.23011654       1.66878018       1.18803348       0.00000000
Si      -1.44834946       1.32680421      -1.44204318       0.00000000
Si      -0.49308757       3.39139948       1.36466274       0.00000000
Si      -2.77953568      -2.62819602      -0.03319738       0.00000000
Si       2.62278937      -0.02363679      -2.81659303       0.00000000
Si       2.74828753      -2.71534752       0.10038172       0.00000000
Si      -0.09634462       2.69400762      -2.81810357       0.00000000
Si      -2.91769117       2.59061499      -0.06817992       0.00000000
