10
Lattice="16.28999089631971 0.0 0.0 0.0 16.28999089631971 0.0 0.0 0.0 34.33025523377368" Properties=species:S:1:pos:R:3:initial_magmoms:R:1 pbc="T T T"
Si      -1.54785692       1.76013450      -0.15403994       0.00000000
Si       0.96177137      -0.00765630       2.15446503       0.00000000
Si      -1.15658741      -2.09903166      -0.05252532       0.00000000
Si       1.54840685       0.76727529      -1.67476811       0.00000000
Si      -0.13378814       3.64370552      -0.24425990       0.00000000
Si       2.27430554      -1.99137105       2.07811450       0.00000000
Si      -3.29398202       1.38680028       1.44084162       0.00000000
Si       2.35034726       1.84880097       2.45300110       0.00000000
Si       0.94588699       3.07597947      -2.18261586       0.00000000
Si      -2.59128029       1.94165397      -2.23836822       0.00000000
