10
Lattice="16.28999089631971 0.0 0.0 0.0 16.28999089631971 0.0 0.0 0.0 34.33025523377368" Properties=species:S:1:pos:R:3:initial_magmoms:R:1 pbc="T T T"
Si      -1.07967514       0.56772605       1.93835595       0.00000000
Si       1.44849214       1.80842132      -0.32606895       0.00000000
Si       0.60251986      -2.30870418       0.50784775       0.00000000
Si      -1.92009157      -0.40581159      -1.66048671       0.00000000
Si      -0.19792513      -2.12724987      -1.83996539       0.00000000
Si       2.78523325       0.39951062      -1.66450336       0.00000000
Si      -0.21739331       3.09339281      -1.50723637       0.00000000
Si      -2.49374392      -1.31584497       2.02857592       0.00000000
Si       1.37230381      -0.94680119      -3.11935172       0.00000000
Si       2.04405454       1.86934592       2.20369465       0.00000000
