10
Lattice="16.28999089631971 0.0 0.0 0.0 16.28999089631971 0.0 0.0 0.0 34.33025523377368" Properties=species:S:1:pos:R:3:initial_magmoms:R:1 pbc="T T T"
Si      -1.44849214      -1.80842132       0.32606895       0.00000000
Si       1.33674111      -1.40891070      -1.33843441       0.00000000
Si      -1.66588545       1.28497149      -1.18116742       0.00000000
Si       0.59556240       0.06092460       2.52976359       0.00000000
Si      -2.72321233       2.24391492       0.72409415       0.00000000
Si      -2.52816727      -1.24069527       2.26442490       0.00000000
Si      -0.24244407       2.69622306      -2.55523666       0.00000000
Si       2.65336407      -0.02513547      -2.71205735       0.00000000
Si       2.70633915      -2.75244457       0.08898407       0.00000000
Si      -0.07618833      -2.75522251      -2.79328278       0.00000000
