10
Lattice="16.28999089631971 0.0 0.0 0.0 16.28999089631971 0.0 0.0 0.0 34.33025523377368" Properties=species:S:1:pos:R:3:initial_magmoms:R:1 pbc="T T T"
Si      -1.31662296      -1.38377523       1.37362294       0.00000000
Si       1.17812538      -1.52846626      -1.42734982       0.00000000
Si      -1.54722420       1.20700755      -1.41200419       0.00000000
Si       1.42438131       1.39450545       1.48910998       0.00000000
Si       2.52125217      -0.17303238      -2.80728953       0.00000000
Si      -0.19658772       2.54462832      -2.80547003       0.00000000
Si      -2.65336407       0.02513547       2.71205735       0.00000000
Si       2.60936478      -2.83912985       0.02138776       0.00000000
Si       2.69970912       2.75879295      -0.08194637       0.00000000
Si      -2.72955240      -2.73008704      -0.08122543       0.00000000
