10
Lattice="16.28999089631971 0.0 0.0 0.0 16.28999089631971 0.0 0.0 0.0 34.33025523377368" Properties=species:S:1:pos:R:3:initial_magmoms:R:1 pbc="T T T"
Si      -1.35589815      -1.35635427      -1.35937588       0.00000000
Si       1.35736425      -1.35751086       1.35779668       0.00000000
Si       1.35772263       1.35933534      -1.35570254       0.00000000
Si      -1.35783666       1.35785295       1.35838030       0.00000000
Si       0.00705357       2.70622512      -2.71737854       0.00000000
Si      -2.71328358       0.00097740       2.71446047       0.00000000
Si       0.00039096      -2.71432288       2.71422016       0.00000000
Si       2.71381626      -2.71513575       0.00092692       0.00000000
Si       2.70855459       0.00630423      -2.72084590       0.00000000
Si      -2.71580201       2.71438641       0.00068661       0.00000000
