10
Lattice="16.28999089631971 0.0 0.0 0.0 16.28999089631971 0.0 0.0 0.0 34.33025523377368" Properties=species:S:1:pos:R:3:initial_magmoms:R:1 pbc="T T T"
Si      -1.35782037      -1.35539316      -1.35566821       0.00000000
Si       1.35698958      -1.35726651       1.35772802       0.00000000
Si      -1.35832536       1.35832536       1.35793400       0.00000000
Si       1.35791811       1.36041048      -1.35645780       0.00000000
Si       0.00141723       2.71008585      -2.71549038       0.00000000
Si      -2.70848943      -0.00850338      -2.71734421       0.00000000
Si       2.71357191      -2.71352304       0.00030897       0.00000000
Si       2.71191033      -0.00430056      -2.71518140       0.00000000
Si      -2.71370223       0.00192222       2.71397984       0.00000000
Si       0.00107514      -2.71357191       2.71552471       0.00000000
