10
Lattice="16.28999089631971 0.0 0.0 0.0 16.28999089631971 0.0 0.0 0.0 34.33025523377368" Properties=species:S:1:pos:R:3:initial_magmoms:R:1 pbc="T T T"
Si      -0.98720658      -0.76505985       1.97337283       0.00000000
Si       0.75743613       2.21584725       0.06505587       0.00000000
Si       2.04090894      -1.22109840      -0.29252827       0.00000000
Si      -1.83552462      -0.15301197      -1.62904018       0.00000000
Si       2.35111941       2.15431992      -1.85967097       0.00000000
Si       0.78648120      -0.95873166       3.51768590       0.00000000
Si      -2.72743470       2.10382092      -1.49130712       0.00000000
Si      -1.19550681       3.55602555      -0.18098921       0.00000000
Si       3.75823332       0.48329172      -0.62992621       0.00000000
Si      -2.13589593      -2.82506067       1.58877077       0.00000000
