10
Lattice="16.28999089631971 0.0 0.0 0.0 16.28999089631971 0.0 0.0 0.0 34.33025523377368" Properties=species:S:1:pos:R:3:initial_magmoms:R:1 pbc="T T T"
Si       0.99269631      -2.08083573       0.27110618       0.00000000
Si       0.97301799       1.65828942       1.35704142       0.00000000
Si       0.98217297       0.66212334      -2.05391166       0.00000000
Si      -2.26378872      -0.84968640       0.41680386       0.00000000
Si      -2.16567405      -2.08816623      -1.83457553       0.00000000
Si      -1.74705363      -0.42060780       3.04966127       0.00000000
Si      -0.06012639      -3.22442631      -1.50212116       0.00000000
Si      -0.51434046       1.60335954       3.21588846       0.00000000
Si       3.19997502      -1.87737363      -0.42713727       0.00000000
Si      -0.79151481       0.85579515      -3.59822472       0.00000000
