10
Lattice="16.28999089631971 0.0 0.0 0.0 16.28999089631971 0.0 0.0 0.0 34.33025523377368" Properties=species:S:1:pos:R:3:initial_magmoms:R:1 pbc="T T T"
Si      -1.98391023      -0.04067613      -1.23530626       0.00000000
Si       0.00640197       1.72763595       1.60896525       0.00000000
Si       0.74230272      -2.25145719       0.29637326       0.00000000
Si       1.40800986       0.60339789      -1.91374115       0.00000000
Si       2.37746034      -1.17123471       1.68424124       0.00000000
Si       1.01973771       0.13996368       3.12061992       0.00000000
Si       0.38485125      -2.69977428      -2.08645676       0.00000000
Si      -0.98349246      -0.85289553      -3.17764453       0.00000000
Si       1.23934320       3.25409040       0.13697779       0.00000000
Si      -3.01252599       2.06413848      -1.38917455       0.00000000
