10
Lattice="16.28999089631971 0.0 0.0 0.0 16.28999089631971 0.0 0.0 0.0 34.33025523377368" Properties=species:S:1:pos:R:3:initial_magmoms:R:1 pbc="T T T"
Si       1.35107631       1.34912151      -1.37980239       0.00000000
Si      -1.35909099      -1.36661697      -1.37712463       0.00000000
Si       1.38031686      -1.18745955       1.56055128       0.00000000
Si      -1.23292494       1.36412460       1.54239057       0.00000000
Si      -0.45173799      -2.04227730       2.95429177       0.00000000
Si      -2.22506739      -0.36093753       2.89623927       0.00000000
Si       0.69711426       2.30770656       2.78202245       0.00000000
Si      -2.70291662       2.69622306       0.01126033       0.00000000
Si       2.70120780      -2.70352098       0.00683172       0.00000000
Si       2.45747682       0.49239783       2.89702887       0.00000000
