10
Lattice="16.28999089631971 0.0 0.0 0.0 16.28999089631971 0.0 0.0 0.0 34.33025523377368" Properties=species:S:1:pos:R:3:initial_magmoms:R:1 pbc="T T T"
Si      -1.11451293       0.97151931       1.84147592       0.00000000
Si      -0.97438635      -2.12918445      -0.38295421       0.00000000
Si       0.02047653       1.56325356      -1.78967154       0.00000000
Si       2.16849222      -0.35293914       0.90752080       0.00000000
Si      -0.98354133      -1.13301837       3.02799886       0.00000000
Si      -0.33021459       3.25180980       1.21693957       0.00000000
Si       1.15473294      -3.23507997      -0.71207855       0.00000000
Si       2.35608786       1.93137498      -1.78486530       0.00000000
Si       3.02787117       1.77898203       0.46634245       0.00000000
Si       2.99696904      -1.70836488      -0.84184699       0.00000000
