10
Lattice="16.28999089631971 0.0 0.0 0.0 16.28999089631971 0.0 0.0 0.0 34.33025523377368" Properties=species:S:1:pos:R:3:initial_magmoms:R:1 pbc="T T T"
Si      -0.15805698       1.26947644      -1.95885113       0.00000000
Si      -1.87859931      -0.97252440       1.02523932       0.00000000
Si       1.61139377      -1.60856649      -0.71499663       0.00000000
Si       0.86306375       1.60434997       1.56594114       0.00000000
Si       2.64862694       0.20072212       2.17368999       0.00000000
Si       1.62317144       2.73270940      -1.34269136       0.00000000
Si       3.50839685      -0.51335003       0.07995521       0.00000000
Si      -1.01672080       1.74105565       2.98680254       0.00000000
Si      -1.48109543      -3.24455490       0.87799677       0.00000000
Si       1.44645752      -1.65947274      -3.06205450       0.00000000
