10
Lattice="16.28999089631971 0.0 0.0 0.0 16.28999089631971 0.0 0.0 0.0 34.33025523377368" Properties=species:S:1:pos:R:3:initial_magmoms:R:1 pbc="T T T"
Si      -2.40065730      -0.53504505       0.32699586       0.00000000
Si      -0.70260399       1.57801230      -1.84298645       0.00000000
Si       1.66641813      -1.07911476      -1.84065199       0.00000000
Si       0.79873128       0.90469773       2.60632010       0.00000000
Si       0.21018987      -3.22664175       0.50774476       0.00000000
Si       2.76620490      -1.91156634       0.05187304       0.00000000
Si      -1.92863826       3.09098109      -0.48762722       0.00000000
Si      -3.15402093       1.67637132       0.94806486       0.00000000
Si      -2.82996396      -1.53932355      -1.93677676       0.00000000
Si       1.56006072       3.02713309       1.82417346       0.00000000
