10
Lattice="16.28999089631971 0.0 0.0 0.0 16.28999089631971 0.0 0.0 0.0 34.33025523377368" Properties=species:S:1:pos:R:3:initial_magmoms:R:1 pbc="T T T"
Si      -0.98733690      -1.61560962      -1.39020446       0.00000000
Si       2.09549673       0.30043647      -1.03059484       0.00000000
Si      -0.63980604       2.24017378       0.35943797       0.00000000
Si       0.01821222      -1.11702159       2.12185127       0.00000000
Si       1.71129708       1.95244025      -2.64497599       0.00000000
Si       3.37172049       1.38292326       0.71225020       0.00000000
Si       0.82082052       3.48373772      -1.12723456       0.00000000
Si      -1.05876855      -0.60973470      -3.55321773       0.00000000
Si       0.72426969      -3.09622401      -2.01151377       0.00000000
Si       1.59542631      -3.02168097       1.64160506       0.00000000
