10
Lattice="16.28999089631971 0.0 0.0 0.0 16.28999089631971 0.0 0.0 0.0 34.33025523377368" Properties=species:S:1:pos:R:3:initial_magmoms:R:1 pbc="T T T"
Si      -1.33967331      -1.35017873       1.37879308       0.00000000
Si       1.37551131       1.36381509       1.36959257       0.00000000
Si       1.16431146      -1.49684737      -1.42696875       0.00000000
Si      -1.32680421       1.42921944      -1.42813598       0.00000000
Si       1.76650389       0.44422830      -2.57101416       0.00000000
Si       0.49510197       2.44433079      -2.60888972       0.00000000
Si      -2.69850366      -2.68901378       0.00619318       0.00000000
Si       2.72719035      -2.69298477       0.00781357       0.00000000
Si      -2.68452684       2.74041783       0.00824270       0.00000000
Si      -2.69535969       0.00249237       2.73041031       0.00000000
