10
Lattice="16.28999089631971 0.0 0.0 0.0 16.28999089631971 0.0 0.0 0.0 34.33025523377368" Properties=species:S:1:pos:R:3:initial_magmoms:R:1 pbc="T T T"
Si       1.35703845       1.35670125      -1.35752204       0.00000000
Si      -1.35842310      -1.35791360      -1.35741905       0.00000000
Si      -1.36089918       1.35531660       1.35872360       0.00000000
Si       1.35907470      -1.35920732       1.36009681       0.00000000
Si       2.71376739      -0.00037956      -2.71504408       0.00000000
Si       2.71428867      -2.71499144       0.00003433       0.00000000
Si      -0.00078192      -2.71536611      -2.71442614       0.00000000
Si      -2.71422351       2.71571079       0.00020598       0.00000000
Si      -2.71461447      -2.71536611      -0.00085826       0.00000000
Si      -0.00172674       2.71575966      -2.71500975       0.00000000
