10
Lattice="16.28999089631971 0.0 0.0 0.0 16.28999089631971 0.0 0.0 0.0 34.33025523377368" Properties=species:S:1:pos:R:3:initial_magmoms:R:1 pbc="T T T"
Si      -1.52392950      -0.64321295      -1.63473901       0.00000000
Si      -0.89047656       1.53129747       1.51774143       0.00000000
Si       0.38419965      -1.65200378       1.61438115       0.00000000
Si       1.99431954       0.79838267      -0.98915820       0.00000000
Si       1.10876256       2.61182946       2.08779564       0.00000000
Si      -1.71129708      -1.95244025       2.64497599       0.00000000
Si      -0.22395492      -0.68361215      -3.64017632       0.00000000
Si       2.98605474       2.19276921       0.64702268       0.00000000
Si       1.66042341      -0.56951699       3.35722620       0.00000000
Si       0.98432325      -3.64868537       0.47413542       0.00000000
