10
Lattice="16.28999089631971 0.0 0.0 0.0 16.28999089631971 0.0 0.0 0.0 34.33025523377368" Properties=species:S:1:pos:R:3:initial_magmoms:R:1 pbc="T T T"
Si       0.47354215       0.44675325       2.25395417       0.00000000
Si      -1.22672564      -1.98923543       0.26877172       0.00000000
Si      -1.16117468       1.53464832      -1.35755637       0.00000000
Si       1.87978455      -0.13670568      -1.42086140       0.00000000
Si      -0.86187851      -2.71358005      -1.96156322       0.00000000
Si       1.01672080      -1.74105565      -2.98680254       0.00000000
Si       1.29326310       2.61812880       2.14337635       0.00000000
Si       2.54443284      -0.66622842       2.51575684       0.00000000
Si      -0.30970874      -3.23949407       2.15710846       0.00000000
Si      -3.30912521       2.00430531      -0.62326613       0.00000000
