10
Lattice="16.28999089631971 0.0 0.0 0.0 16.28999089631971 0.0 0.0 0.0 34.33025523377368" Properties=species:S:1:pos:R:3:initial_magmoms:R:1 pbc="T T T"
Si      -0.83828340       2.22705477       0.20749218       0.00000000
Si       1.80895563       0.20336436      -1.63364044       0.00000000
Si      -1.99585080      -1.04412384      -1.18535572       0.00000000
Si       1.03011444       0.27676710       2.61594155       0.00000000
Si      -0.24128748       2.27686959       2.57806598       0.00000000
Si      -0.60233904       2.81258253      -2.15261120       0.00000000
Si       1.56890619       2.23980984      -2.76516628       0.00000000
Si      -2.17375389      -0.08286723      -3.27023328       0.00000000
Si       3.91642551       0.34720506      -0.39764757       0.00000000
Si       1.63657485      -1.29851662      -3.45311065       0.00000000
