10
Lattice="16.28999089631971 0.0 0.0 0.0 16.28999089631971 0.0 0.0 0.0 34.33025523377368" Properties=species:S:1:pos:R:3:initial_magmoms:R:1 pbc="T T T"
Si       1.34239374       1.33302699       1.36629343       0.00000000
Si       1.35772263      -1.31119839      -1.43637868       0.00000000
Si      -1.37650500      -1.37109672       1.36066326       0.00000000
Si      -1.01333574       1.58767227      -1.51165467       0.00000000
Si      -1.01973771      -0.13996368      -3.12061992       0.00000000
Si      -0.27743499      -2.39142087      -2.82424667       0.00000000
Si      -2.71107954       2.69922042      -0.02411358       0.00000000
Si       2.69783577       2.72225448      -0.00764192       0.00000000
Si      -0.01159848       2.69773803       2.72501703       0.00000000
Si       2.68452684      -2.74041783      -0.00824270       0.00000000
