10
Lattice="16.28999089631971 0.0 0.0 0.0 16.28999089631971 0.0 0.0 0.0 34.33025523377368" Properties=species:S:1:pos:R:3:initial_magmoms:R:1 pbc="T T T"
Si       1.34358291       1.35097857       1.36637925       0.00000000
Si      -1.35005004      -1.34490240       1.36964063       0.00000000
Si       1.35698958      -1.35413883      -1.35505026       0.00000000
Si      -1.35711990       1.35734796      -1.35439799       0.00000000
Si      -2.53946439       0.21608685       2.72877619       0.00000000
Si       0.00001629      -2.71435383      -2.71281261       0.00000000
Si       2.71490769       0.00052128      -2.71267529       0.00000000
Si      -2.71533123       0.00096111      -2.71288128       0.00000000
Si       2.71432125      -2.71414206       0.00593914       0.00000000
Si       2.71360449       2.71494027       0.00765565       0.00000000
