10
Lattice="16.28999089631971 0.0 0.0 0.0 16.28999089631971 0.0 0.0 0.0 34.33025523377368" Properties=species:S:1:pos:R:3:initial_magmoms:R:1 pbc="T T T"
Si       1.70303805       1.05143805       1.23132395       0.00000000
Si      -1.85722290       1.48240629      -0.08709591       0.00000000
Si      -0.32022882      -2.10859389       1.07807361       0.00000000
Si       1.11734739      -0.05359410      -2.12106167       0.00000000
Si      -3.69945900      -0.04430880       0.04267253       0.00000000
Si       3.51416025      -0.51883650       1.29054368       0.00000000
Si      -0.49479246      -1.60624287       3.38839809       0.00000000
Si       1.35475785      -3.55835502       0.24710932       0.00000000
Si       2.80073970       2.58444108      -0.21075355       0.00000000
Si       2.08818252       2.09319984      -2.45567886       0.00000000
