10
Lattice="16.28999089631971 0.0 0.0 0.0 16.28999089631971 0.0 0.0 0.0 34.33025523377368" Properties=species:S:1:pos:R:3:initial_magmoms:R:1 pbc="T T T"
Si      -1.08791136      -1.09990080      -1.74758262       0.00000000
Si      -0.46794654      -0.50876928       2.24252219       0.00000000
Si      -0.84258396       2.19996450      -0.04727279       0.00000000
Si       2.02807242      -1.22823342      -0.35775579       0.00000000
Si      -0.14934672      -2.78462889       2.35388960       0.00000000
Si       0.32193927       3.25648503       1.67329191       0.00000000
Si      -3.29519007      -1.30336290      -1.04933917       0.00000000
Si       1.72794546      -3.20368914       0.91311664       0.00000000
Si       1.42206813       0.11082087       3.47151168       0.00000000
Si       0.20096973      -2.96101701      -2.38997071       0.00000000
