10
Lattice="16.28999089631971 0.0 0.0 0.0 16.28999089631971 0.0 0.0 0.0 34.33025523377368" Properties=species:S:1:pos:R:3:initial_magmoms:R:1 pbc="T T T"
Si      -1.38823380       1.28557422      -1.38563854       0.00000000
Si       1.31571072      -1.44521622      -1.38498626       0.00000000
Si      -1.68120945      -0.91751796       1.48746213       0.00000000
Si       1.87295904       0.91181646       1.25322667       0.00000000
Si      -0.20181681      -0.59502483       3.37816766       0.00000000
Si      -2.56733658      -2.58010794      -0.02258932       0.00000000
Si      -0.02961522       2.63658537      -2.74752052       0.00000000
Si      -2.77343766       2.61047250       0.02193705       0.00000000
Si       3.54770136      -0.84434328       1.12009386       0.00000000
Si       2.68573230      -0.08125452      -2.74370986       0.00000000
