10
Lattice="16.28999089631971 0.0 0.0 0.0 16.28999089631971 0.0 0.0 0.0 34.33025523377368" Properties=species:S:1:pos:R:3:initial_magmoms:R:1 pbc="T T T"
Si       0.85937895       2.13192117      -0.44117836       0.00000000
Si       0.82847682      -1.35542574      -1.74936779       0.00000000
Si      -0.67974912      -1.01587698       2.03660920       0.00000000
Si      -2.16849222       0.35293914      -0.90752080       0.00000000
Si      -1.01375928      -2.88214083      -1.61959936       0.00000000
Si       0.18759564       2.28431412      -2.69238610       0.00000000
Si      -3.28300515       1.32445845       0.93395512       0.00000000
Si       1.13740038       0.31078062      -3.54223204       0.00000000
Si       0.48477411       0.04064355       3.75717389       0.00000000
Si      -3.14287857      -1.77624531      -1.29047502       0.00000000
