10
Lattice="16.28999089631971 0.0 0.0 0.0 16.28999089631971 0.0 0.0 0.0 34.33025523377368" Properties=species:S:1:pos:R:3:initial_magmoms:R:1 pbc="T T T"
Si      -1.16452323      -1.05652053      -1.72056469       0.00000000
Si       0.73326177      -0.86693751       2.05473558       0.00000000
Si      -1.82938329       1.19995398       0.94428853       0.00000000
Si       2.32811793       0.16552269      -0.71846398       0.00000000
Si       2.92843701      -0.20865861       1.59759365       0.00000000
Si      -0.32193927      -3.25648503      -1.67329191       0.00000000
Si      -2.56707594       2.58838326      -0.77373572       0.00000000
Si      -3.31677432      -0.55873071       1.68822557       0.00000000
Si       1.10012886      -3.14566416       1.79821977       0.00000000
Si      -0.48477411      -0.04064355      -3.75717389       0.00000000
