10
Lattice="16.28999089631971 0.0 0.0 0.0 16.28999089631971 0.0 0.0 0.0 34.33025523377368" Properties=species:S:1:pos:R:3:initial_magmoms:R:1 pbc="T T T"
Si       1.45182996      -1.30785894      -1.29298799       0.00000000
Si       1.35883035       1.33883505       1.37259990       0.00000000
Si      -1.35842310      -1.37914398       1.36751902       0.00000000
Si      -1.29919266       1.42043654      -1.46073601       0.00000000
Si      -2.18209437      -0.24044040      -3.07249918       0.00000000
Si       2.69850366       2.68901378      -0.00619318       0.00000000
Si      -2.71987614       2.67847415      -0.00234476       0.00000000
Si       0.00314397       2.69150615       2.72421713       0.00000000
Si      -2.71704168      -2.71937115       0.00565763       0.00000000
Si      -2.71358820      -0.01938711       2.72895471       0.00000000
