10
Lattice="16.28999089631971 0.0 0.0 0.0 16.28999089631971 0.0 0.0 0.0 34.33025523377368" Properties=species:S:1:pos:R:3:initial_magmoms:R:1 pbc="T T T"
Si       0.99733896       1.71343107       1.12290002       0.00000000
Si      -1.71471798      -0.97950141       1.14326131       0.00000000
Si      -0.86791491       1.33903800      -1.67364555       0.00000000
Si       1.76256171      -1.60246359      -0.33225873       0.00000000
Si       1.33439535       1.49662746      -2.60035697       0.00000000
Si       2.28749067       0.27414441       2.42182715       0.00000000
Si      -0.44750259      -2.43485001       2.43158381       0.00000000
Si       2.51535519       2.44846845      -0.51063884       0.00000000
Si       1.74110778      -1.06868916      -2.92996194       0.00000000
Si      -2.95122672      -2.22200487      -0.39552943       0.00000000
