10
Lattice="16.28999089631971 0.0 0.0 0.0 16.28999089631971 0.0 0.0 0.0 34.33025523377368" Properties=species:S:1:pos:R:3:initial_magmoms:R:1 pbc="T T T"
Si      -1.34601012      -1.36062225      -1.36861072       0.00000000
Si       1.40597361      -1.24499583       1.41993448       0.00000000
Si       1.37217186       1.35425286      -1.36881670       0.00000000
Si      -1.49349978       1.27467621       1.40386791       0.00000000
Si       2.52584595       0.35821710       2.79293948       0.00000000
Si      -2.70299970       2.71275741      -0.00614512       0.00000000
Si      -2.70462870      -2.71163340      -0.00672873       0.00000000
Si      -2.70117522      -0.00298107      -2.72870753       0.00000000
Si       2.73865851      -2.69195508       0.00109857       0.00000000
Si       2.72860758       2.70335808       0.00614512       0.00000000
