10
Lattice="16.28999089631971 0.0 0.0 0.0 16.28999089631971 0.0 0.0 0.0 34.33025523377368" Properties=species:S:1:pos:R:3:initial_magmoms:R:1 pbc="T T T"
Si       1.20949992      -1.43808120       1.41001303       0.00000000
Si       1.36078515       1.35356868      -1.36150435       0.00000000
Si      -1.35897696      -1.35918873      -1.36411345       0.00000000
Si      -1.27107612       1.40199512       1.46579973       0.00000000
Si       2.36799585       0.11759751       2.73409739       0.00000000
Si      -2.70231552       2.71265871       0.01706215       0.00000000
Si       2.70299970      -2.71275741       0.00614512       0.00000000
Si      -2.70583416      -2.71217097      -0.00223147       0.00000000
Si       2.70827766       2.72192935       0.02025486       0.00000000
Si       0.00171045       2.71277600      -2.72160117       0.00000000
