10
Lattice="16.28999089631971 0.0 0.0 0.0 16.28999089631971 0.0 0.0 0.0 34.33025523377368" Properties=species:S:1:pos:R:3:initial_magmoms:R:1 pbc="T T T"
Si       1.35221661      -1.35612525       1.35982217       0.00000000
Si       1.35660350       1.35691627      -1.35608017       0.00000000
Si      -1.35830907      -1.35855306      -1.35690410       0.00000000
Si      -1.35855342       1.35650902       1.36174467       0.00000000
Si       2.71367521      -0.00089758      -2.71452913       0.00000000
Si       0.01270620       2.69825116       2.73001208       0.00000000
Si      -0.00055386       2.71563260      -2.71360221       0.00000000
Si       2.71419486      -2.71555833       0.00127022       0.00000000
Si      -2.71612944      -0.00078355      -2.71452913       0.00000000
Si      -0.00040725      -2.71619364      -2.71449480       0.00000000
