10
Lattice="16.28999089631971 0.0 0.0 0.0 16.28999089631971 0.0 0.0 0.0 34.33025523377368" Properties=species:S:1:pos:R:3:initial_magmoms:R:1 pbc="T T T"
Si       0.24944877      -0.72891234       2.19308659       0.00000000
Si       1.95077134       0.89443503      -1.09376254       0.00000000
Si      -0.84159027      -1.95807429      -1.15727355       0.00000000
Si      -1.67474232       1.75615974       0.13313280       0.00000000
Si      -2.08828026      -1.51255908       1.99740403       0.00000000
Si       0.50735205       2.14959582      -2.49790510       0.00000000
Si      -2.23199064      -0.60087294      -2.50508012       0.00000000
Si      -3.54770136       0.84434328      -1.12009386       0.00000000
Si      -0.82533285       3.59655507      -1.07906919       0.00000000
Si       2.09866743      -2.22550722       2.37541468       0.00000000
