10
Lattice="16.28999089631971 0.0 0.0 0.0 16.28999089631971 0.0 0.0 0.0 34.33025523377368" Properties=species:S:1:pos:R:3:initial_magmoms:R:1 pbc="T T T"
Si      -1.35710361      -1.35597960      -1.35851762       0.00000000
Si       1.35729799      -1.35713619       1.35769369       0.00000000
Si      -1.35803214       1.35814617       1.35741905       0.00000000
Si       1.35800297       1.35933534      -1.35721307       0.00000000
Si       2.71354815      -2.71508688       0.00027464       0.00000000
Si      -0.00073305       2.71513575       2.71363654       0.00000000
Si      -0.00037467      -2.71419093       2.71476944       0.00000000
Si       2.71396680       2.71552671      -0.00027464       0.00000000
Si       2.71537263       0.00208512       2.71425449       0.00000000
Si      -2.71529865      -2.71489140      -0.00003433       0.00000000
