10
Lattice="16.28999089631971 0.0 0.0 0.0 16.28999089631971 0.0 0.0 0.0 34.33025523377368" Properties=species:S:1:pos:R:3:initial_magmoms:R:1 pbc="T T T"
Si      -1.09770165      -1.53300303       1.44207751       0.00000000
Si      -0.71255718      -0.49124124      -2.24492530       0.00000000
Si      -0.60621606       2.33251623       0.24268071       0.00000000
Si       2.15216868      -1.14984594       0.51049118       0.00000000
Si       1.53503881       3.03494103       0.84620693       0.00000000
Si       0.71342055      -3.10327758       1.50129723       0.00000000
Si       2.92524973       1.92917583      -0.83134193       0.00000000
Si      -1.68339231      -2.63803518      -1.91030812       0.00000000
Si      -2.23647039       1.26223065      -2.69125320       0.00000000
Si      -2.80073970      -2.58444108       0.21075355       0.00000000
