10
Lattice="16.28999089631971 0.0 0.0 0.0 16.28999089631971 0.0 0.0 0.0 34.33025523377368" Properties=species:S:1:pos:R:3:initial_magmoms:R:1 pbc="T T T"
Si       1.64589324       1.01944449      -1.34475118       0.00000000
Si      -1.32455619       1.46453616       1.34155846       0.00000000
Si      -1.11987234      -1.60321293      -1.37300500       0.00000000
Si       0.20276163       2.34514098      -2.78679436       0.00000000
Si      -2.86084980       2.47213782      -0.06498721       0.00000000
Si      -2.52584595      -0.35821710      -2.79293948       0.00000000
Si       2.88092301       2.68512957      -0.15651172       0.00000000
Si       0.97637373      -0.36263169       3.81354420       0.00000000
Si      -1.96928181      -3.44360826      -0.16080301       0.00000000
Si      -0.45831915       3.67805394       1.62770130       0.00000000
