10
Lattice="16.28999089631971 0.0 0.0 0.0 16.28999089631971 0.0 0.0 0.0 34.33025523377368" Properties=species:S:1:pos:R:3:initial_magmoms:R:1 pbc="T T T"
Si       1.35770634      -1.35519768      -1.36009681       0.00000000
Si      -1.35811196       1.35971001      -1.35937588       0.00000000
Si      -1.35958784      -1.35694071       1.37729628       0.00000000
Si       1.35909099       1.36661697       1.37712463       0.00000000
Si      -2.61991663       0.13093902       2.77422948       0.00000000
Si       2.70796815      -2.71342530       0.00178517       0.00000000
Si       2.71016730       2.71573848      -0.00267776       0.00000000
Si       2.71308321       0.00120546      -2.71614265       0.00000000
Si      -2.71368346      -2.71595025       0.00099558       0.00000000
Si      -0.00197109      -2.71399545      -2.71566203       0.00000000
