10
Lattice="16.28999089631971 0.0 0.0 0.0 16.28999089631971 0.0 0.0 0.0 34.33025523377368" Properties=species:S:1:pos:R:3:initial_magmoms:R:1 pbc="T T T"
Si      -1.34488874      -1.32677163       1.37173477       0.00000000
Si       1.36033522      -1.35316143      -1.35772802       0.00000000
Si      -1.35577046       1.35988920      -1.35834597       0.00000000
Si       1.37462155       1.34996859       1.39003281       0.00000000
Si       0.09853055      -2.58193242       2.77587733       0.00000000
Si       0.00226059      -2.71238274      -2.71428882       0.00000000
Si      -2.71420985      -2.71327869       0.00583615       0.00000000
Si      -2.71306955       0.00289962      -2.71456346       0.00000000
Si      -2.71137539       2.71943631       0.00181950       0.00000000
Si       2.71844718      -2.71287144       0.00164785       0.00000000
