10
Lattice="16.28999089631971 0.0 0.0 0.0 16.28999089631971 0.0 0.0 0.0 34.33025523377368" Properties=species:S:1:pos:R:3:initial_magmoms:R:1 pbc="T T T"
Si      -1.97916332       0.22690341       1.34718863       0.00000000
Si       0.89191008      -2.25683289      -0.13773306       0.00000000
Si       1.53192789       1.45220463       1.31031791       0.00000000
Si      -0.88378137      -0.93082689      -2.69866854       0.00000000
Si      -1.21099208      -3.18744801       0.66305492       0.00000000
Si      -3.07770947      -1.74260646       0.64297171       0.00000000
Si       2.46770694       2.74209570      -0.54911274       0.00000000
Si       2.72743470      -2.10382092       1.49130712       0.00000000
Si      -1.22150728       0.38947761       3.59510067       0.00000000
Si       3.48487083       0.11202633       1.55636299       0.00000000
