10
Lattice="16.28999089631971 0.0 0.0 0.0 16.28999089631971 0.0 0.0 0.0 34.33025523377368" Properties=species:S:1:pos:R:3:initial_magmoms:R:1 pbc="T T T"
Si      -1.35793346      -1.35631746      -1.35745338       0.00000000
Si       1.35803377      -1.35714597       1.35793400       0.00000000
Si      -1.35707170       1.35781385       1.35844896       0.00000000
Si       1.35967906       1.35869351      -1.35961619       0.00000000
Si      -2.71367521       0.00089758       2.71452913       0.00000000
Si      -2.71408246      -2.71529606       0.00003433       0.00000000
Si       2.71596817       0.00072490       2.71397984       0.00000000
Si       0.00229363       2.71602518       2.71422016       0.00000000
Si       0.00051965      -2.71466075       2.71579935       0.00000000
Si       2.71557721       2.71504778      -0.00024031       0.00000000
