10
Lattice="16.28999089631971 0.0 0.0 0.0 16.28999089631971 0.0 0.0 0.0 34.33025523377368" Properties=species:S:1:pos:R:3:initial_magmoms:R:1 pbc="T T T"
Si      -1.61661960      -0.59012154       1.63789739       0.00000000
Si       0.04590522       2.12724594      -1.10183016       0.00000000
Si       2.22692445      -0.05281218       0.95994313       0.00000000
Si      -0.98692965      -1.44923985      -1.73179069       0.00000000
Si      -2.36837215       0.29851425      -2.67837935       0.00000000
Si       3.34143738      -1.02433149      -0.88153279       0.00000000
Si      -3.23028094       1.08968697       1.30235329       0.00000000
Si       3.01122279       2.22747831       0.33540678       0.00000000
Si       2.25807093       2.43129879      -1.84724341       0.00000000
Si      -2.42740385      -2.76229530       1.05520964       0.00000000
