10
Lattice="16.28999089631971 0.0 0.0 0.0 16.28999089631971 0.0 0.0 0.0 34.2284985734139" Properties=species:S:1:pos:R:3:initial_magmoms:R:1 pbc="T T T"
Si      -1.35662468      -1.34937412       1.39538714       0.00000000
Si       1.36282140       1.36321780       1.39309382       0.00000000
Si       1.40411655      -1.44300904      -1.44477546       0.00000000
Si      -1.38990352       1.36847621      -1.54581120       0.00000000
Si      -2.68772033       2.71368486       0.03293468       0.00000000
Si      -2.70438932      -2.71266793       0.01055607       0.00000000
Si       2.70958086       2.72152035       0.00608241       0.00000000
Si       2.71067229      -2.72444560       0.04163215       0.00000000
Si       0.00373041      -2.71142989       2.75597071       0.00000000
Si      -2.71214548       0.00568096       2.75631300       0.00000000
