10
Lattice="16.28999089631971 0.0 0.0 0.0 16.28999089631971 0.0 0.0 0.0 34.2284985734139" Properties=species:S:1:pos:R:3:initial_magmoms:R:1 pbc="T T T"
Si       1.35715248       1.35430173       1.35695536       0.00000000
Si       1.35711990      -1.35736914      -1.35719496       0.00000000
Si      -1.35783666       1.35760860      -1.35740033       0.00000000
Si      -1.35967743      -1.35804029       1.35685267       0.00000000
Si      -2.71507059       0.00216657       2.71223351       0.00000000
Si      -0.00006516       2.71454931      -2.71452682       0.00000000
Si       2.71477737       2.71458189      -0.00020537       0.00000000
Si      -2.71533123       2.71469592       0.00058188       0.00000000
Si       2.71511946      -2.71529061      -0.00017114       0.00000000
Si      -2.71546155      -2.71506019       0.00020537       0.00000000
