10
Lattice="16.28999089631971 0.0 0.0 0.0 16.28999089631971 0.0 0.0 0.0 34.2284985734139" Properties=species:S:1:pos:R:3:initial_magmoms:R:1 pbc="T T T"
Si       0.85450824       0.60277887       2.11782108       0.00000000
Si      -1.64551806      -1.68667149      -0.16652174       0.00000000
Si      -0.30990096       2.06436654      -1.16428303       0.00000000
Si       1.92529881      -1.00701522      -0.99930157       0.00000000
Si      -1.64115234      -1.96356239      -2.58599874       0.00000000
Si       2.03590791       2.69208540      -1.55934858       0.00000000
Si       2.68411959       0.62731161      -2.51213360       0.00000000
Si      -1.11081510      -3.40694666       1.36397220       0.00000000
Si      -1.48058181       3.57047478       0.23278815       0.00000000
Si      -1.80204867       1.68278958      -3.01570355       0.00000000
