10
Lattice="16.28999089631971 0.0 0.0 0.0 16.28999089631971 0.0 0.0 0.0 34.2284985734139" Properties=species:S:1:pos:R:3:initial_magmoms:R:1 pbc="T T T"
Si       1.24859592       1.11698412       1.61962500       0.00000000
Si      -0.42453369       1.66406748      -1.58478037       0.00000000
Si       1.52306613      -1.30967528      -1.20179749       0.00000000
Si      -1.27206981      -1.70722036       1.01549166       0.00000000
Si      -0.09686034      -2.88016552      -1.91159426       0.00000000
Si       2.65417857      -0.62064900       2.37254970       0.00000000
Si       1.76676453       2.60343033      -1.77758961       0.00000000
Si      -1.66948065       3.23786067      -0.36853845       0.00000000
Si      -0.18059094      -3.66115699       0.26273810       0.00000000
Si       3.03349122      -2.13348079       0.44969427       0.00000000
