10
Lattice="16.28999089631971 0.0 0.0 0.0 16.28999089631971 0.0 0.0 0.0 34.2284985734139" Properties=species:S:1:pos:R:3:initial_magmoms:R:1 pbc="T T T"
Si      -1.35539316      -1.35682668      -1.35712650       0.00000000
Si       1.35993807      -1.35448092       1.36034398       0.00000000
Si       1.35953082       1.35865116      -1.35740033       0.00000000
Si      -1.35511623       1.36241415       1.35811913       0.00000000
Si      -2.71307669       2.71435383      -0.00034229       0.00000000
Si      -2.71246745       0.00087966      -2.71534831       0.00000000
Si       0.00210141      -2.71391400      -2.71510871       0.00000000
Si      -2.71451673      -2.71640637      -0.00068457       0.00000000
Si       0.00283446       2.71611315      -2.71490334       0.00000000
Si       2.71715571       0.00112401      -2.71507448       0.00000000
