10
Lattice="16.28999089631971 0.0 0.0 0.0 16.28999089631971 0.0 0.0 0.0 34.2284985734139" Properties=species:S:1:pos:R:3:initial_magmoms:R:1 pbc="T T T"
Si      -1.46763615       1.69463078      -0.69932285       0.00000000
Si      -0.65041083      -2.03272389      -1.01583395       0.00000000
Si      -0.00436572       0.27689090       2.41947700       0.00000000
Si       1.62427590       0.60752252      -1.71180240       0.00000000
Si       0.29602188      -3.45054033       0.56685848       0.00000000
Si       0.36854496       0.15520949      -3.58536877       0.00000000
Si       1.64115234       1.96356239       2.58599874       0.00000000
Si      -0.16089633       3.64635197      -0.42970481       0.00000000
Si       3.56342121      -0.91024515       0.16320157       0.00000000
Si      -1.57613406       1.40497829      -3.14293095       0.00000000
