10
Lattice="16.28999089631971 0.0 0.0 0.0 16.28999089631971 0.0 0.0 0.0 34.2284985734139" Properties=species:S:1:pos:R:3:initial_magmoms:R:1 pbc="T T T"
Si       0.90894942       0.80602920       1.98747888       0.00000000
Si       1.24494696      -1.57379319      -1.21624192       0.00000000
Si      -2.09621349      -0.98795592       0.52431243       0.00000000
Si       0.00821016       2.08977894      -1.14093918       0.00000000
Si      -1.09014309       1.39390272      -3.10127485       0.00000000
Si       1.66948065      -3.23786067       0.36853845       0.00000000
Si      -2.71904372       0.30911904       2.50871075       0.00000000
Si      -0.90717381       1.89794790       3.06280199       0.00000000
Si       3.43624518      -0.63443034      -1.40905116       0.00000000
Si       3.05719317       1.62362430       1.49030966       0.00000000
