10
Lattice="16.28999089631971 0.0 0.0 0.0 16.28999089631971 0.0 0.0 0.0 34.2284985734139" Properties=species:S:1:pos:R:3:initial_magmoms:R:1 pbc="T T T"
Si       1.35801585       1.35615879       1.35743456       0.00000000
Si      -1.35669636       1.35746199      -1.35750301       0.00000000
Si       1.35762489      -1.35752715      -1.35767415       0.00000000
Si      -1.35953082      -1.35865116       1.35740033       0.00000000
Si      -2.71353933       0.00099369      -2.71531408       0.00000000
Si       2.71464705      -0.00105885      -2.71442414       0.00000000
Si      -2.71456560       2.71477737      -0.00017114       0.00000000
Si       2.71515204       2.71498914      -0.00030806       0.00000000
Si      -2.71464705       0.00376299       2.71551945       0.00000000
Si       2.71438641       0.00003258       2.71599865       0.00000000
