10
Lattice="16.28999089631971 0.0 0.0 0.0 16.28999089631971 0.0 0.0 0.0 34.2284985734139" Properties=species:S:1:pos:R:3:initial_magmoms:R:1 pbc="T T T"
Si       1.35637056      -1.35612621       1.35856410       0.00000000
Si      -1.35801585      -1.35615879      -1.35743456       0.00000000
Si       1.35713619       1.35883035      -1.35774261       0.00000000
Si      -1.35542574       1.35868374       1.36137083       0.00000000
Si       2.69469180       0.00912240       2.72503498       0.00000000
Si       0.00252495      -2.70347211       2.72250207       0.00000000
Si       2.71319724       2.71437012      -0.00065034       0.00000000
Si       2.71412577      -2.71414206      -0.00085571       0.00000000
Si      -0.00039096      -2.71368594      -2.71510871       0.00000000
Si      -2.71471221       0.00130320      -2.71493757       0.00000000
