10
Lattice="16.28999089631971 0.0 0.0 0.0 16.28999089631971 0.0 0.0 0.0 34.2284985734139" Properties=species:S:1:pos:R:3:initial_magmoms:R:1 pbc="T T T"
Si       0.53429571      -2.26185021      -0.48183484       0.00000000
Si       1.81415214       1.57882680      -0.15129005       0.00000000
Si      -1.35553977       0.41005188      -2.02006443       0.00000000
Si      -2.55469554      -0.47332224      -0.14868868       0.00000000
Si      -1.08787878      -0.40229784       2.34766557       0.00000000
Si      -1.23787710       2.69224830      -1.67480137       0.00000000
Si       3.01288437       0.24751026      -1.71094669       0.00000000
Si       2.79917586      -1.93925934      -0.91554439       0.00000000
Si      -0.46931490      -2.72318301      -2.51630948       0.00000000
Si      -2.06563716       3.13659063       0.53225345       0.00000000
