10
Lattice="16.28999089631971 0.0 0.0 0.0 16.28999089631971 0.0 0.0 0.0 34.2284985734139" Properties=species:S:1:pos:R:3:initial_magmoms:R:1 pbc="T T T"
Si       1.72077786      -0.84108528       1.41411698       0.00000000
Si      -1.90288377      -1.58777001       0.54194012       0.00000000
Si      -0.80892882       1.84598280       1.57040439       0.00000000
Si       1.08787878       0.40229784      -2.34766557       0.00000000
Si      -1.46681676      -0.07102440      -2.49635425       0.00000000
Si      -3.11819922       1.22127759      -1.18122615       0.00000000
Si       0.43704441      -1.87944246       3.13999898       0.00000000
Si      -2.25324909       2.97424449       0.14458126       0.00000000
Si       1.62217449      -1.85955237      -2.82950042       0.00000000
Si      -0.97000434      -3.23692074       1.88808547       0.00000000
