10
Lattice="16.28999089631971 0.0 0.0 0.0 16.28999089631971 0.0 0.0 0.0 34.2284985734139" Properties=species:S:1:pos:R:3:initial_magmoms:R:1 pbc="T T T"
Si       1.35682668      -1.35733167      -1.35633924       0.00000000
Si       1.35731538       1.35549090       1.35849564       0.00000000
Si      -1.35775521       1.35767376      -1.35661307       0.00000000
Si      -1.35881406      -1.35697329       1.35757147       0.00000000
Si       0.00016290      -2.71241532      -2.71363688       0.00000000
Si      -0.00078192       2.71411778      -2.71428723       0.00000000
Si       2.71453302      -0.00099369      -2.71397917       0.00000000
Si      -2.71467963      -0.00171045      -2.71435568       0.00000000
Si       2.71477737      -2.71466334       0.00030806       0.00000000
Si      -2.71494027      -2.71487511       0.00044497       0.00000000
