10
Lattice="16.28999089631971 0.0 0.0 0.0 16.28999089631971 0.0 0.0 0.0 34.2284985734139" Properties=species:S:1:pos:R:3:initial_magmoms:R:1 pbc="T T T"
Si      -1.35666378      -1.35508365      -1.35729764       0.00000000
Si      -1.35682668       1.35733167       1.35633924       0.00000000
Si       1.35770634       1.35633798      -1.35763993       0.00000000
Si       1.35795069      -1.35733167       1.35664730       0.00000000
Si      -2.71402803       0.00017919      -2.71059055       0.00000000
Si       0.00048870       2.71282257       2.71483488       0.00000000
Si       2.71401174      -0.00179190       2.71373957       0.00000000
Si      -2.71389771      -2.71485882      -0.00054766       0.00000000
Si      -2.71564074       0.00035838       2.71391071       0.00000000
Si      -2.71458189       2.71500543      -0.00027383       0.00000000
