10
Lattice="16.28999089631971 0.0 0.0 0.0 16.28999089631971 0.0 0.0 0.0 34.2284985734139" Properties=species:S:1:pos:R:3:initial_magmoms:R:1 pbc="T T T"
Si       1.58465862       0.88097690       1.44601796       0.00000000
Si       1.46246733      -1.23688341      -1.41545189       0.00000000
Si      -1.22414463       1.48390238      -1.42880101       0.00000000
Si      -1.84085145      -1.05546168       1.23253469       0.00000000
Si      -3.47573214       0.79002332       1.06152902       0.00000000
Si       0.41407551       1.49305573       3.43596129       0.00000000
Si       0.11383452      -2.58287724      -2.79010339       0.00000000
Si       2.69977428       2.68140635       0.06397310       0.00000000
Si      -2.59942788       0.13067838      -2.78777585       0.00000000
Si      -2.64285702       2.76064091      -0.08273033       0.00000000
