10
Lattice="16.28999089631971 0.0 0.0 0.0 16.28999089631971 0.0 0.0 0.0 34.2284985734139" Properties=species:S:1:pos:R:3:initial_magmoms:R:1 pbc="T T T"
Si      -1.68746481       1.61816715      -0.33081862       0.00000000
Si       0.82776006      -0.44434233      -2.20705482       0.00000000
Si      -1.27549071      -0.56464398       1.95999338       0.00000000
Si       1.85086980       0.24977457       1.61342964       0.00000000
Si      -2.14044084      -2.31761088       0.63418598       0.00000000
Si      -2.74159071       0.45447471      -2.05771580       0.00000000
Si       2.90093949       1.89866466       0.34923357       0.00000000
Si      -1.07365761      -0.08404011      -3.49202760       0.00000000
Si      -0.48905838      -3.60991287      -0.68094213       0.00000000
Si       0.16882956      -1.69290567       3.38581651       0.00000000
