10
Lattice="16.28999089631971 0.0 0.0 0.0 16.28999089631971 0.0 0.0 0.0 34.2284985734139" Properties=species:S:1:pos:R:3:initial_magmoms:R:1 pbc="T T T"
Si      -1.34465805      -1.35179796       1.37107120       0.00000000
Si      -1.41636663       1.23113304      -1.43887104       0.00000000
Si       1.36919079       1.36604682       1.36552618       0.00000000
Si       1.31194773      -1.39680560      -1.42751060       0.00000000
Si       0.15011235       2.41947225      -2.69448343       0.00000000
Si      -2.68539021       2.70736542       0.01100105       0.00000000
Si      -2.68827354      -2.70902918       0.00710926       0.00000000
Si       2.71215468      -2.70546668       0.00889257       0.00000000
Si      -2.70400968       0.01005093       2.72761581       0.00000000
Si       0.00794952      -2.70566185       2.72864267       0.00000000
