10
Lattice="16.28999089631971 0.0 0.0 0.0 16.28999089631971 0.0 0.0 0.0 34.2284985734139" Properties=species:S:1:pos:R:3:initial_magmoms:R:1 pbc="T T T"
Si      -1.89949545       1.41114569       0.09067134       0.00000000
Si      -0.36240363      -2.18382015       0.86320899       0.00000000
Si       1.57077954       0.75894296       1.62616265       0.00000000
Si       0.57117627      -0.63433097      -2.26596210       0.00000000
Si       2.73843045       2.21807083       0.22361491       0.00000000
Si      -2.01728844      -1.57812537       2.58949005       0.00000000
Si      -3.69714582      -0.04758635      -0.47947308       0.00000000
Si       2.86756128      -1.00770689      -2.20250243       0.00000000
Si      -1.05301818      -2.26940781      -2.81245461       0.00000000
Si      -1.72779885       2.87911903      -1.76632843       0.00000000
