10
Lattice="16.28999089631971 0.0 0.0 0.0 16.28999089631971 0.0 0.0 0.0 34.2284985734139" Properties=species:S:1:pos:R:3:initial_magmoms:R:1 pbc="T T T"
Si       0.85823865       2.20279244       0.24387819       0.00000000
Si      -1.97736165       0.13549045      -1.37430921       0.00000000
Si       1.15504245      -1.61484140      -1.40662093       0.00000000
Si      -1.04407497       1.43493071       2.57761275       0.00000000
Si      -3.04154337      -1.87991228      -0.68847241       0.00000000
Si       3.43487682      -1.50957542      -0.67457563       0.00000000
Si       0.12569364      -3.71116892      -0.92574449       0.00000000
Si      -3.00368215       2.23607291      -0.90972554       0.00000000
Si       2.18551527       2.74551008      -1.61349810       0.00000000
Si      -1.76565681      -3.49926860       0.63209804       0.00000000
