10
Lattice="16.28999089631971 0.0 0.0 0.0 16.28999089631971 0.0 0.0 0.0 34.2284985734139" Properties=species:S:1:pos:R:3:initial_magmoms:R:1 pbc="T T T"
Si      -1.36293543       1.29995829       1.30040984       0.00000000
Si       1.14155433      -1.30831506       1.50821118       0.00000000
Si      -1.34882829      -1.36163223      -1.31947513       0.00000000
Si       1.36186029       1.35452979      -1.32385638       0.00000000
Si       1.74671154       0.54420003       2.91969256       0.00000000
Si      -2.40992631      -0.35012097       2.64230465       0.00000000
Si       0.12619863       2.37788388       2.72989543       0.00000000
Si      -0.69649524      -2.25173412       2.83946091       0.00000000
Si       0.00223173       2.70736542      -2.68043522       0.00000000
Si      -2.70993924      -0.00508248      -2.68009294       0.00000000
