10
Lattice="16.28999089631971 0.0 0.0 0.0 16.28999089631971 0.0 0.0 0.0 34.2284985734139" Properties=species:S:1:pos:R:3:initial_magmoms:R:1 pbc="T T T"
Si       1.36293543      -1.29995829      -1.30040984       0.00000000
Si       1.48913406       1.07792559       1.42948558       0.00000000
Si      -1.36643778       1.41822369      -1.25461209       0.00000000
Si      -1.04699088      -1.65007926       1.34189481       0.00000000
Si      -0.47605896       1.80973755       2.61848160       0.00000000
Si      -1.83345579      -0.13743873       3.02864193       0.00000000
Si       3.10964697      -0.75575826       1.61928272       0.00000000
Si       2.50448976      -2.60827335       0.20780133       0.00000000
Si       0.01410714      -2.66159052      -2.61988497       0.00000000
Si      -2.70475902       0.05297508      -2.62108297       0.00000000
