10
Lattice="16.28999089631971 0.0 0.0 0.0 16.28999089631971 0.0 0.0 0.0 34.2284985734139" Properties=species:S:1:pos:R:3:initial_magmoms:R:1 pbc="T T T"
Si       1.04699088       1.65007926      -1.34189481       0.00000000
Si      -1.72595808      -1.07237070      -1.24283748       0.00000000
Si      -0.78646491       1.51264053       1.68674712       0.00000000
Si       1.71343107      -1.90161315       0.19715626       0.00000000
Si      -0.30382479      -2.39099733      -2.59287867       0.00000000
Si       2.40992631       0.35012097      -2.64230465       0.00000000
Si      -0.60126390       0.16594623       3.61018445       0.00000000
Si       2.53612494       2.72800485       0.08759078       0.00000000
Si       0.57093192       3.45981681       1.27658680       0.00000000
Si       3.55148064      -0.95819409      -1.13409348       0.00000000
