10
Lattice="16.28999089631971 0.0 0.0 0.0 16.28999089631971 0.0 0.0 0.0 34.2284985734139" Properties=species:S:1:pos:R:3:initial_magmoms:R:1 pbc="T T T"
Si      -0.28820268      -0.66114594      -2.16238661       0.00000000
Si       1.64551806      -1.45168335       0.77756924       0.00000000
Si       0.52913178       2.25600210       0.38572117       0.00000000
Si      -2.38814658      -0.63684126      -0.61755092       0.00000000
Si       2.71311579      -0.05075964       2.29676777       0.00000000
Si      -2.43079380      -2.50437573       0.78903579       0.00000000
Si       2.72640843       2.04737607       1.20436462       0.00000000
Si       0.28452114      -2.95036335      -2.12644666       0.00000000
Si      -0.65112759      -3.71729655      -0.11463131       0.00000000
Si      -0.60667218       2.96706060       2.36111738       0.00000000
