10
Lattice="16.28999089631971 0.0 0.0 0.0 16.28999089631971 0.0 0.0 0.0 34.2284985734139" Properties=species:S:1:pos:R:3:initial_magmoms:R:1 pbc="T T T"
Si      -1.33558354      -1.36140417      -1.36621759       0.00000000
Si       1.35440110      -1.35378045       1.35695536       0.00000000
Si      -1.35852004       1.36036161       1.35705804       0.00000000
Si       1.34363341       1.36181142      -1.37168046       0.00000000
Si      -2.62810384       0.02454903      -2.73196625       0.00000000
Si      -0.00229363      -2.71178653       2.71438991       0.00000000
Si       2.71274275       0.00296478       2.71408185       0.00000000
Si       2.71495819      -2.71187123      -0.00605845       0.00000000
Si       2.71388305       2.71595025      -0.00222485       0.00000000
Si      -2.71699837       0.00289962       2.71387648       0.00000000
