10
Lattice="16.28999089631971 0.0 0.0 0.0 16.28999089631971 0.0 0.0 0.0 34.2284985734139" Properties=species:S:1:pos:R:3:initial_magmoms:R:1 pbc="T T T"
Si       0.28820268       0.66114594       2.16238661       0.00000000
Si       0.74082033       1.52034570      -1.60826113       0.00000000
Si       0.57272382      -2.28921741       0.03593994       0.00000000
Si      -2.09994390       0.02430468       1.54483569       0.00000000
Si      -3.15248967      -0.69328611      -0.53293802       0.00000000
Si      -0.49718709       0.54511227      -3.34142213       0.00000000
Si       2.99682243       0.81000396      -1.66857178       0.00000000
Si      -2.61382824       0.92919789      -2.18740765       0.00000000
Si       1.93372074      -0.79053741       2.93995584       0.00000000
Si      -0.36292491      -3.05615061       2.04775530       0.00000000
