10
Lattice="16.28999089631971 0.0 0.0 0.0 16.28999089631971 0.0 0.0 0.0 34.2284985734139" Properties=species:S:1:pos:R:3:initial_magmoms:R:1 pbc="T T T"
Si      -1.00361061      -0.46133280      -2.03447464       0.00000000
Si       2.26488015       0.32259087      -0.43370955       0.00000000
Si      -0.53429571       2.26185021       0.48183484       0.00000000
Si      -0.22379202      -1.91933667       1.38355091       0.00000000
Si       1.41053481      -0.69276483       3.06595102       0.00000000
Si       3.05720946       0.34756344       1.77936949       0.00000000
Si      -3.08899125       1.78852797       0.33314616       0.00000000
Si      -2.22757605      -2.81670390      -0.00448394       0.00000000
Si      -1.88983548       2.67190209      -1.53822959       0.00000000
Si       0.00912240      -2.46702276      -2.67855265       0.00000000
