10
Lattice="16.28999089631971 0.0 0.0 0.0 16.28999089631971 0.0 0.0 0.0 34.2284985734139" Properties=species:S:1:pos:R:3:initial_magmoms:R:1 pbc="T T T"
Si      -2.26488015      -0.32259087       0.43370955       0.00000000
Si       1.41068142      -1.54473183      -1.03483078       0.00000000
Si       0.21370851       2.18676960      -0.79540229       0.00000000
Si       0.79232931       0.02497257       2.21307904       0.00000000
Si      -2.79917586       1.93925934       0.91554439       0.00000000
Si      -0.03267774      -3.33935226      -1.63684195       0.00000000
Si      -3.26849076      -0.78392367      -1.60076509       0.00000000
Si      -0.98502372       3.51808614       0.76425434       0.00000000
Si       2.19385575       3.00951234       0.34029992       0.00000000
Si      -0.85434534      -1.01535570       3.49966056       0.00000000
