10
Lattice="16.28999089631971 0.0 0.0 0.0 16.28999089631971 0.0 0.0 0.0 34.2284985734139" Properties=species:S:1:pos:R:3:initial_magmoms:R:1 pbc="T T T"
Si       1.35562122       1.35852084      -1.35736610       0.00000000
Si       1.35754344      -1.35695700       1.35729764       0.00000000
Si      -1.35848826      -1.35791811      -1.35674998       0.00000000
Si      -1.35798327       1.35812988       1.35736610       0.00000000
Si       2.71117728      -0.00239463       2.71391071       0.00000000
Si       0.00475668       2.71456560      -2.71336306       0.00000000
Si      -0.00192222       2.71366965       2.71445837       0.00000000
Si      -0.00099369      -2.71484253       2.71425300       0.00000000
Si       0.00149868      -2.71551042      -2.71363688       0.00000000
Si       2.71485882      -2.71458189       0.00037651       0.00000000
