10
Lattice="16.28999089631971 0.0 0.0 0.0 16.28999089631971 0.0 0.0 0.0 34.2284985734139" Properties=species:S:1:pos:R:3:initial_magmoms:R:1 pbc="T T T"
Si       1.42781850       0.66699405      -1.75393770       0.00000000
Si       1.03057056      -2.06210223       0.70384101       0.00000000
Si      -0.46470483       1.75234788       1.63071504       0.00000000
Si      -1.98669582      -0.40881384      -1.40056249       0.00000000
Si      -1.94116527       0.13994739       2.87262835       0.00000000
Si      -0.99935892      -3.32457723       0.75521801       0.00000000
Si      -2.01722328       1.67299929      -2.54940846       0.00000000
Si       2.16637452      -2.77316073      -1.27155520       0.00000000
Si       0.19678320       1.91891313      -3.22795459       0.00000000
Si       0.82241694       1.21047732       3.56342829       0.00000000
