10
Lattice="16.28999089631971 0.0 0.0 0.0 16.28999089631971 0.0 0.0 0.0 34.2284985734139" Properties=species:S:1:pos:R:3:initial_magmoms:R:1 pbc="T T T"
Si      -0.21370851      -2.18676960       0.79540229       0.00000000
Si      -1.19873223       1.33131654       1.55965664       0.00000000
Si       1.98014724       0.82274274       1.13570222       0.00000000
Si      -1.27902564       0.24268842      -2.13264202       0.00000000
Si      -3.01288437      -0.24751026       1.71094669       0.00000000
Si       2.45244321       2.61913878      -0.31110300       0.00000000
Si       0.62749080       1.71374058       3.17127217       0.00000000
Si      -2.47858866      -2.50936047       1.22911184       0.00000000
Si       0.57862080      -2.16179703       3.00848133       0.00000000
Si      -1.48717926       3.51526797       0.72694526       0.00000000
