10
Lattice="16.28999089631971 0.0 0.0 0.0 16.28999089631971 0.0 0.0 0.0 34.2284985734139" Properties=species:S:1:pos:R:3:initial_magmoms:R:1 pbc="T T T"
Si      -1.34268696      -1.34022717      -1.36540980       0.00000000
Si      -1.48585977       1.17714798       1.41753983       0.00000000
Si       1.37109672       1.37438730      -1.35955672       0.00000000
Si       1.29974652      -1.40620167       1.40648402       0.00000000
Si       0.37023912       2.08578789       2.63179650       0.00000000
Si       2.16228573       0.41756157       2.62481388       0.00000000
Si      -2.72235222      -2.69107542       0.00397051       0.00000000
Si       2.72295495      -2.70008379       0.00332017       0.00000000
Si       0.00925272      -2.70189198      -2.72226247       0.00000000
Si      -2.70384678       0.01417230      -2.72171481       0.00000000
