10
Lattice="16.28999089631971 0.0 0.0 0.0 16.28999089631971 0.0 0.0 0.0 34.2284985734139" Properties=species:S:1:pos:R:3:initial_magmoms:R:1 pbc="T T T"
Si      -1.34863281      -1.34599383      -1.37465150       0.00000000
Si       1.36958175       1.36646234      -1.36951722       0.00000000
Si      -1.46246733       1.23688341       1.41545189       0.00000000
Si       1.22546412      -1.54329831       1.40535448       0.00000000
Si       0.12219129       2.11786031       2.86146985       0.00000000
Si      -2.70899442      -2.69814528      -0.00954976       0.00000000
Si      -2.68661196       2.72078579      -0.01334912       0.00000000
Si       2.71132389      -2.72044629      -0.01218535       0.00000000
Si      -2.70604593       0.00834048      -2.73280485       0.00000000
Si       0.00747711      -2.70627399      -2.73390017       0.00000000
