10
Lattice="16.28999089631971 0.0 0.0 0.0 16.28999089631971 0.0 0.0 0.0 34.2284985734139" Properties=species:S:1:pos:R:3:initial_magmoms:R:1 pbc="T T T"
Si       0.17964612       1.86421131       1.42428285       0.00000000
Si      -1.36689390      -1.37717289       1.53244497       0.00000000
Si       1.96250517      -1.63432683      -0.13482613       0.00000000
Si       0.67145751       0.17161515      -2.46239956       0.00000000
Si       0.70082838      -1.61587026       2.69696760       0.00000000
Si       1.01118546       0.64373193       3.33221466       0.00000000
Si       2.46350412      -1.49661117      -2.46938218       0.00000000
Si      -1.94124672       2.97542456       1.50396684       0.00000000
Si       1.20712158      -3.48557130       1.19443835       0.00000000
Si      -1.18464138      -0.73702476      -3.67665623       0.00000000
