10
Lattice="16.28999089631971 0.0 0.0 0.0 16.28999089631971 0.0 0.0 0.0 34.2284985734139" Properties=species:S:1:pos:R:3:initial_magmoms:R:1 pbc="T T T"
Si       1.35749457      -1.35739031      -1.36376683       0.00000000
Si      -1.35845568       1.35834165      -1.36332186       0.00000000
Si       1.34258922       1.35892809       1.39508592       0.00000000
Si      -1.34399016      -1.36431682       1.39012279       0.00000000
Si       2.71145175      -2.71341550      -0.00513428       0.00000000
Si      -2.71233387      -2.71585143       0.00047920       0.00000000
Si      -2.71239903       2.71634121      -0.00349131       0.00000000
Si       2.72062548       2.71370223      -0.00270405       0.00000000
Si      -0.00019548      -2.71444818      -2.72061950       0.00000000
Si       2.71522351       0.00034209      -2.72103024       0.00000000
