10
Lattice="16.28999089631971 0.0 0.0 0.0 16.28999089631971 0.0 0.0 0.0 34.2284985734139" Properties=species:S:1:pos:R:3:initial_magmoms:R:1 pbc="T T T"
Si      -0.04715955       0.06395780       2.37552759       0.00000000
Si       1.78780374      -1.75388796      -0.11442593       0.00000000
Si       0.57081789       2.07107639      -1.31030189       0.00000000
Si      -2.04322212      -0.72002682      -1.31235560       0.00000000
Si       1.89602146       1.53392993       1.96875588       0.00000000
Si      -0.74709198      -1.94749461      -2.87269681       0.00000000
Si       1.96620204       0.78690311      -2.86674104       0.00000000
Si       0.62094436      -3.30652044      -1.44783207       0.00000000
Si       3.28200236      -0.67265550      -1.53911953       0.00000000
Si      -2.22529545       0.85905315       2.91685159       0.00000000
