10
Lattice="16.28999089631971 0.0 0.0 0.0 16.28999089631971 0.0 0.0 0.0 34.2284985734139" Properties=species:S:1:pos:R:3:initial_magmoms:R:1 pbc="T T T"
Si      -0.60937632      -2.23663264      -0.36781965       0.00000000
Si      -0.73850715       0.98914509       2.05829768       0.00000000
Si       2.36094947      -0.58135752      -0.01317798       0.00000000
Si      -0.85287924       1.24714611      -1.94688386       0.00000000
Si       2.69603477       1.59404166      -0.86156602       0.00000000
Si       1.32723657       1.16991522      -2.82737825       0.00000000
Si       1.43627857       1.34081361       2.83819446       0.00000000
Si      -2.65903299      -0.32534388      -2.20421385       0.00000000
Si      -2.90576133      -1.86325672      -0.43127932       0.00000000
Si       2.46259907      -0.75976886       2.37361079       0.00000000
