10
Lattice="16.28999089631971 0.0 0.0 0.0 16.28999089631971 0.0 0.0 0.0 34.2284985734139" Properties=species:S:1:pos:R:3:initial_magmoms:R:1 pbc="T T T"
Si       1.16765091       1.45912788      -1.40254774       0.00000000
Si      -1.57077954      -0.75894296      -1.62616265       0.00000000
Si      -1.11632112       1.52984277       1.65032798       0.00000000
Si       1.42635240      -1.85530787       0.96613414       0.00000000
Si       0.20797443       0.59346099       3.43438682       0.00000000
Si      -1.93318317      -2.94276311      -0.76295366       0.00000000
Si      -3.47027499       0.65220273      -1.53549130       0.00000000
Si       3.34243663       1.81079640      -0.62265097       0.00000000
Si       0.13494636       3.59279208      -1.46474096       0.00000000
Si       1.88863002      -1.24739860       3.25526858       0.00000000
