10
Lattice="16.28999089631971 0.0 0.0 0.0 16.28999089631971 0.0 0.0 0.0 34.2284985734139" Properties=species:S:1:pos:R:3:initial_magmoms:R:1 pbc="T T T"
Si      -1.10291445      -1.69852572      -1.15257482       0.00000000
Si       1.29252029      -1.38595320       1.36574866       0.00000000
Si       1.24149348       1.36923966      -1.48154515       0.00000000
Si      -1.43883054       1.33639902       1.35947457       0.00000000
Si       2.58100945       2.66269824      -0.05032277       0.00000000
Si       2.59033710      -2.73116185      -0.21299722       0.00000000
Si       2.62810384      -0.02454903       2.73196625       0.00000000
Si       0.57774114      -3.53938531      -1.33169307       0.00000000
Si      -0.35531748       2.87626014      -2.49926166       0.00000000
Si      -0.09021402       2.69426826       2.72953603       0.00000000
