10
Lattice="16.28999089631971 0.0 0.0 0.0 16.28999089631971 0.0 0.0 0.0 34.2284985734139" Properties=species:S:1:pos:R:3:initial_magmoms:R:1 pbc="T T T"
Si      -1.36186029      -1.35452979       1.32385638       0.00000000
Si      -1.35962856       1.35283563      -1.35657884       0.00000000
Si       1.35850455      -1.35907470      -1.35514124       0.00000000
Si       1.35407367       1.35464382       1.36900379       0.00000000
Si       2.35844991      -0.27881964       2.72592492       0.00000000
Si      -2.72479572      -0.05457150       2.62426622       0.00000000
Si      -0.06913476       2.64852594       2.77216765       0.00000000
Si       0.00099369       2.71257822      -2.71315768       0.00000000
Si      -2.71156824       2.71450044       0.00027383       0.00000000
Si      -2.71326240      -0.00172674      -2.71319191       0.00000000
