10
Lattice="16.28999089631971 0.0 0.0 0.0 16.28999089631971 0.0 0.0 0.0 34.2284985734139" Properties=species:S:1:pos:R:3:initial_magmoms:R:1 pbc="T T T"
Si       1.43838324       1.30826619       1.24872478       0.00000000
Si      -1.00437624       1.63346346      -1.35692113       0.00000000
Si       1.71768180      -1.10003112      -1.32529398       0.00000000
Si      -1.97359866      -0.53151012       1.51762402       0.00000000
Si      -2.57875587      -2.38402521       0.10614263       0.00000000
Si       1.42542454       0.06481791       3.22518208       0.00000000
Si      -2.35844991       0.27881964      -2.72592492       0.00000000
Si       0.36388602      -2.43998136      -2.72075642       0.00000000
Si      -2.42758467       2.92734558       0.04624273       0.00000000
Si      -3.59411157       1.30217373       1.32782689       0.00000000
