10
Lattice="16.28999089631971 0.0 0.0 0.0 16.28999089631971 0.0 0.0 0.0 34.2284985734139" Properties=species:S:1:pos:R:3:initial_magmoms:R:1 pbc="T T T"
Si       1.16901927      -0.59139216       1.93654685       0.00000000
Si      -0.10982718      -1.89731259      -1.38255829       0.00000000
Si      -2.25600210       0.71034174       0.06031065       0.00000000
Si       1.40204772       1.83831021      -0.55248250       0.00000000
Si      -2.99682243      -0.81000396       1.66857178       0.00000000
Si       1.60480935       2.91797883       1.57372456       0.00000000
Si       3.15854955      -1.71463653       1.29222923       0.00000000
Si       1.57361400       1.28091528       3.28580079       0.00000000
Si      -3.49400952      -0.26489169      -1.67285035       0.00000000
Si       1.18260513      -1.43091360      -3.42956056       0.00000000
