10
Lattice="16.28999089631971 0.0 0.0 0.0 16.28999089631971 0.0 0.0 0.0 34.2284985734139" Properties=species:S:1:pos:R:3:initial_magmoms:R:1 pbc="T T T"
Si      -0.73472787       0.30698505       2.22909799       0.00000000
Si       1.03270455      -2.13366420       0.06219322       0.00000000
Si       1.80548586       0.95125455      -1.23671057       0.00000000
Si      -1.99016559       0.32200443      -1.32573895       0.00000000
Si       0.99917973       0.42656994      -3.34679600       0.00000000
Si      -1.14637617       1.27837404      -3.28330210       0.00000000
Si      -2.60851770       1.89170883       1.92217087       0.00000000
Si       3.20749027      -1.78199568       0.84208999       0.00000000
Si      -0.13494636      -3.59279208       1.46474096       0.00000000
Si      -3.40084701       1.86673626      -0.29090817       0.00000000
