10
Lattice="16.28999089631971 0.0 0.0 0.0 16.28999089631971 0.0 0.0 0.0 34.2284985734139" Properties=species:S:1:pos:R:3:initial_magmoms:R:1 pbc="T T T"
Si       2.14555590      -0.85180410      -0.06349390       0.00000000
Si      -1.06759773      -1.40092371      -1.51919853       0.00000000
Si      -0.84378942      -0.95636961       1.95756316       0.00000000
Si       0.01329264       2.09813571      -1.09240314       0.00000000
Si      -2.71311579       0.05075964      -2.29676777       0.00000000
Si       1.56911796       1.48053294      -2.84192537       0.00000000
Si       2.95186203      -0.32711949       2.04659153       0.00000000
Si       0.68729139      -2.18966922      -2.83521658       0.00000000
Si       1.14637617      -1.27837404       3.28330210       0.00000000
Si      -2.18398401       2.30676174      -1.91104660       0.00000000
