10
Lattice="16.28999089631971 0.0 0.0 0.0 16.28999089631971 0.0 0.0 0.0 34.2284985734139" Properties=species:S:1:pos:R:3:initial_magmoms:R:1 pbc="T T T"
Si       1.35746929      -1.35694071       1.35712650       0.00000000
Si      -1.35671265      -1.35769005      -1.35736610       0.00000000
Si      -1.35757602       1.35726651       1.35705804       0.00000000
Si       1.35699636       1.35870003      -1.35743456       0.00000000
Si      -0.00182448       2.71402803       2.71445837       0.00000000
Si      -2.71451673      -2.71466334       0.00010269       0.00000000
Si       2.71487252      -0.00123804       2.71445837       0.00000000
Si      -0.00006516      -2.71438641       2.71507448       0.00000000
Si      -2.71466334       2.71516833      -0.00037651       0.00000000
Si       2.71548177      -2.71471221      -0.00054766       0.00000000
