10
Lattice="16.28999089631971 0.0 0.0 0.0 16.28999089631971 0.0 0.0 0.0 34.2284985734139" Properties=species:S:1:pos:R:3:initial_magmoms:R:1 pbc="T T T"
Si       2.13980879       0.90489321      -0.28741686       0.00000000
Si      -1.32583074      -0.18484263      -1.92295812       0.00000000
Si      -1.14515835       1.67013225       1.20090754       0.00000000
Si      -0.23505981      -1.90109187       1.37235819       0.00000000
Si       1.59337703       2.81536812      -1.48911166       0.00000000
Si      -3.31536102       0.93840174      -1.27864051       0.00000000
Si      -2.33432835       0.47837214       2.84904490       0.00000000
Si       3.31048964      -0.60121503      -1.68448804       0.00000000
Si      -2.41517562      -1.82386098       2.25285258       0.00000000
Si       1.13373839      -1.47696543       3.33817042       0.00000000
