10
Lattice="16.28999089631971 0.0 0.0 0.0 16.28999089631971 0.0 0.0 0.0 34.2284985734139" Properties=species:S:1:pos:R:3:initial_magmoms:R:1 pbc="T T T"
Si       0.83096919      -0.14287959      -2.15074891       0.00000000
Si       1.51098451      -1.35913986       1.24434353       0.00000000
Si      -2.04760413      -1.22173371      -0.24100299       0.00000000
Si       0.83067597       2.16762885       0.71113168       0.00000000
Si       3.14233190       0.10440261      -1.57786621       0.00000000
Si       2.30118471       0.27792369       2.72958737       0.00000000
Si      -1.84011840      -2.84040585       1.50543867       0.00000000
Si      -0.43225515       2.63607193       2.64613825       0.00000000
Si       3.28501601      -1.87499529      -0.32267224       0.00000000
Si       0.70837065      -2.43853155      -2.88700433       0.00000000
