10
Lattice="16.28999089631971 0.0 0.0 0.0 16.28999089631971 0.0 0.0 0.0 34.2284985734139" Properties=species:S:1:pos:R:3:initial_magmoms:R:1 pbc="T T T"
Si      -0.63900783      -1.91374920       1.28477567       0.00000000
Si      -0.63490275      -0.71516358      -2.23098056       0.00000000
Si      -1.69704333       1.75506831       0.02348076       0.00000000
Si       1.94313636       0.82080423       1.32691439       0.00000000
Si       1.63216026      -0.21406689      -2.66232834       0.00000000
Si      -1.99770786      -0.53379072       2.74701794       0.00000000
Si       0.70889193       2.21123718       2.75539024       0.00000000
Si      -3.41440029       0.74202579       1.36588698       0.00000000
Si      -0.69131502       3.51989826       1.31898707       0.00000000
Si       2.28305979       2.15840871      -2.23546449       0.00000000
