10
Lattice="16.28999089631971 0.0 0.0 0.0 16.28999089631971 0.0 0.0 0.0 34.2284985734139" Properties=species:S:1:pos:R:3:initial_magmoms:R:1 pbc="T T T"
Si      -0.54643176       1.91047491      -1.20169480       0.00000000
Si      -2.13980879      -0.90489321       0.28741686       0.00000000
Si       1.09835325       0.69587622       1.96033567       0.00000000
Si       1.17068085      -1.50610824      -1.39707118       0.00000000
Si       1.09014309      -1.39390272       3.10127485       0.00000000
Si      -3.28496714       0.76523904       1.48832441       0.00000000
Si      -0.32146686      -1.88768520      -3.24849170       0.00000000
Si       3.22300908       1.56478482       1.23958577       0.00000000
Si       1.48058181      -3.57047478      -0.23278815       0.00000000
Si      -1.28607921       1.52842554      -3.31972125       0.00000000
