10
Lattice="16.28999089631971 0.0 0.0 0.0 16.28999089631971 0.0 0.0 0.0 34.2284985734139" Properties=species:S:1:pos:R:3:initial_magmoms:R:1 pbc="T T T"
Si       1.22391005      -1.61135793       1.32515706       0.00000000
Si      -1.52575139       1.04021424       1.56588623       0.00000000
Si      -0.73569712      -0.81021573      -2.16218123       0.00000000
Si       1.91882516       1.32440958      -1.03876706       0.00000000
Si       3.12622367      -0.84349620      -1.00857750       0.00000000
Si      -0.18623543       2.33367282       2.99710861       0.00000000
Si       2.53778000      -0.27924318       2.92192224       0.00000000
Si       0.29062337      -2.91079820      -2.62676491       0.00000000
Si      -0.09877116       0.74008728      -3.87754340       0.00000000
Si       2.26798502      -3.04628864      -1.25245569       0.00000000
