10
Lattice="16.28999089631971 0.0 0.0 0.0 16.28999089631971 0.0 0.0 0.0 34.2284985734139" Properties=species:S:1:pos:R:3:initial_magmoms:R:1 pbc="T T T"
Si      -0.13075983       2.01036519       1.25847991       0.00000000
Si      -2.41905590      -0.09148464       0.00968667       0.00000000
Si       0.96389559      -2.02220802       0.92180821       0.00000000
Si       0.83184885       0.09073530      -2.27886625       0.00000000
Si       2.84288193      -0.04667085       1.71693668       0.00000000
Si       1.19149947       1.24563114       3.03206478       0.00000000
Si      -1.33270934       0.19675062      -3.27779131       0.00000000
Si      -2.66355251       1.50444666      -1.83632575       0.00000000
Si      -0.84797432      -3.61103688       0.36771697       0.00000000
Si      -2.88690470      -2.42808966       0.00427856       0.00000000
