10
Lattice="16.28999089631971 0.0 0.0 0.0 16.28999089631971 0.0 0.0 0.0 34.2284985734139" Properties=species:S:1:pos:R:3:initial_magmoms:R:1 pbc="T T T"
Si      -1.32225930       0.76473405      -1.77358487       0.00000000
Si       0.86495013       1.75296690       1.32580740       0.00000000
Si      -1.89299737      -0.76276296       1.30157361       0.00000000
Si       1.65138246      -1.29230199      -1.31512811       0.00000000
Si       2.14044084       2.31761088      -0.63418598       0.00000000
Si      -1.19149947      -1.24563114      -3.03206478       0.00000000
Si       1.21531545      -2.80904760       1.72316627       0.00000000
Si       3.11819922      -1.22127759       1.18122615       0.00000000
Si      -0.57866967      -1.91593206       2.93439210       0.00000000
Si       2.30927040       0.62470521       2.75163054       0.00000000
