10
Lattice="16.28999089631971 0.0 0.0 0.0 16.28999089631971 0.0 0.0 0.0 34.31420841018396" Properties=species:S:1:pos:R:3:initial_magmoms:R:1 pbc="T T T"
Si       0.74288590       1.37660274       1.80763920       0.00000000
Si       2.34652237      -0.70068177       0.11313401       0.00000000
Si      -0.18054044       1.70963550      -1.78207510       0.00000000
Si      -1.32063340      -2.11628996      -0.16546321       0.00000000
Si      -2.55105702       1.37658645       0.27128828       0.00000000
Si       2.87967778       1.47188295       0.98207319       0.00000000
Si      -2.98226961      -0.93992485      -1.54777755       0.00000000
Si      -1.23011654       3.24952920      -0.35151495       0.00000000
Si      -1.65851163       0.37739043      -3.16308550       0.00000000
Si      -0.00309836      -3.42431180      -1.70538280       0.00000000
