10
Lattice="16.28999089631971 0.0 0.0 0.0 16.28999089631971 0.0 0.0 0.0 34.31420841018396" Properties=species:S:1:pos:R:3:initial_magmoms:R:1 pbc="T T T"
Si      -1.70081609      -0.71933382       1.54383283       0.00000000
Si       1.97284932      -1.63592325       0.03410834       0.00000000
Si       0.81261036       1.87877457       1.54663287       0.00000000
Si      -1.46399859       0.42762879      -2.23471407       0.00000000
Si      -0.37234053      -1.94528664       3.01900833       0.00000000
Si       1.03285116      -3.21703065       1.62359282       0.00000000
Si      -2.65855406      -2.70607851       0.44281142       0.00000000
Si       2.33644212       0.77142924       2.99215745       0.00000000
Si       3.63465738      -0.54529146       1.45227903       0.00000000
Si       2.09113101       3.48699318       0.27784230       0.00000000
