10
Lattice="16.28999089631971 0.0 0.0 0.0 16.28999089631971 0.0 0.0 0.0 34.31420841018396" Properties=species:S:1:pos:R:3:initial_magmoms:R:1 pbc="T T T"
Si       2.25461745       0.66485778      -0.06087344       0.00000000
Si      -0.57453201      -1.94752621      -1.19591946       0.00000000
Si      -0.16583220      -1.15115698       2.09670225       0.00000000
Si      -1.54028466       1.72550131      -0.66329402       0.00000000
Si      -2.18349531      -0.31005541       2.87951272       0.00000000
Si      -1.19837385      -1.14358213      -3.24815047       0.00000000
Si       2.84573268       0.12390826      -2.34390194       0.00000000
Si       1.50099318      -0.11996740       3.36787281       0.00000000
Si      -2.66838345      -2.57604328      -0.08636891       0.00000000
Si       3.23478675      -0.42209803       1.83601706       0.00000000
