10
Lattice="16.28999089631971 0.0 0.0 0.0 16.28999089631971 0.0 0.0 0.0 34.31420841018396" Properties=species:S:1:pos:R:3:initial_magmoms:R:1 pbc="T T T"
Si       1.63421280       1.46240217      -0.83067882       0.00000000
Si      -2.23775730       0.07727976      -0.75731500       0.00000000
Si      -0.11069055      -0.62212813       2.29188157       0.00000000
Si       1.08514206      -2.04137225      -0.57153777       0.00000000
Si       2.26626480      -2.22254963       1.47276665       0.00000000
Si      -2.59934643      -2.23146026      -1.05989786       0.00000000
Si      -0.58168332      -3.07256183      -1.84270834       0.00000000
Si       0.11893329      -3.00785795       2.03359838       0.00000000
Si       3.72573477       0.79039080       0.15252674       0.00000000
Si       1.00561428       3.68997822      -0.26089107       0.00000000
