10
Lattice="16.28999089631971 0.0 0.0 0.0 16.28999089631971 0.0 0.0 0.0 34.31420841018396" Properties=species:S:1:pos:R:3:initial_magmoms:R:1 pbc="T T T"
Si      -0.33236487       0.47417095      -2.22260115       0.00000000
Si       1.27801566       1.91448388       0.59593519       0.00000000
Si       0.87461010      -1.88418841       1.26489106       0.00000000
Si      -2.31795297      -0.40439599       0.61906298       0.00000000
Si      -1.18638441      -1.22021965       2.64548969       0.00000000
Si      -2.25181557      -2.01965605      -1.26557734       0.00000000
Si       2.92970763      -0.58938523       1.37576033       0.00000000
Si      -1.06259670       2.70409276      -1.81614912       0.00000000
Si       1.97745939       1.26742879       2.66810963       0.00000000
Si       3.33425349      -1.17311230      -0.99072038       0.00000000
