10
Lattice="16.28999089631971 0.0 0.0 0.0 16.28999089631971 0.0 0.0 0.0 34.31420841018396" Properties=species:S:1:pos:R:3:initial_magmoms:R:1 pbc="T T T"
Si       2.09924343       0.99770386       0.24249865       0.00000000
Si       0.30553524      -0.93372718      -2.13544301       0.00000000
Si      -1.58113998       1.75272907      -0.07734427       0.00000000
Si       0.04160466      -1.40928115       1.93226847       0.00000000
Si       1.45319832       2.35097932       2.03044147       0.00000000
Si       0.97114464      -3.30384073       0.81942375       0.00000000
Si      -0.79495200       3.11993248       1.69213750       0.00000000
Si       2.37760695       2.51255983      -1.58940071       0.00000000
Si       3.63952809      -0.72779745       0.90579267       0.00000000
Si      -1.57939695       2.72977069      -2.17569360       0.00000000
