10
Lattice="16.28999089631971 0.0 0.0 0.0 16.28999089631971 0.0 0.0 0.0 34.31420841018396" Properties=species:S:1:pos:R:3:initial_magmoms:R:1 pbc="T T T"
Si      -2.07871803       0.12658959      -1.10780052       0.00000000
Si       0.07579737      -2.06182530       1.15662967       0.00000000
Si       1.66625523       0.67800609      -1.55992479       0.00000000
Si       0.11070684       1.35400851       2.02574043       0.00000000
Si       2.46055563       1.40072823       1.90783674       0.00000000
Si       2.77780338       2.27828682      -0.24898404       0.00000000
Si      -0.69991614       3.40850331       1.17742409       0.00000000
Si      -3.60408105      -0.21224241       0.70773094       0.00000000
Si       3.05872443      -1.22991129      -1.68781391       0.00000000
Si      -1.99423809      -1.68744852      -2.69366687       0.00000000
