10
Lattice="16.28999089631971 0.0 0.0 0.0 16.28999089631971 0.0 0.0 0.0 34.31420841018396" Properties=species:S:1:pos:R:3:initial_magmoms:R:1 pbc="T T T"
Si       0.50347503       1.79696619      -1.34607852       0.00000000
Si       1.85490972      -0.58875318       1.28287171       0.00000000
Si       0.33269067      -1.79405028      -1.46597243       0.00000000
Si      -2.27929680       0.16257420       0.81393348       0.00000000
Si       0.65370141      -2.42465247       2.22630709       0.00000000
Si      -1.43073441       0.43963452       3.05063778       0.00000000
Si      -0.25140357      -3.42616167       0.16779657       0.00000000
Si      -1.50449553       1.82268810      -2.54536077       0.00000000
Si       0.32861817       2.48600061       2.49553652       0.00000000
Si       2.59768485      -1.31116581      -2.04423579       0.00000000
