10
Lattice="16.28999089631971 0.0 0.0 0.0 16.28999089631971 0.0 0.0 0.0 34.31420841018396" Properties=species:S:1:pos:R:3:initial_magmoms:R:1 pbc="T T T"
Si      -1.39277871       1.45718937       1.17392404       0.00000000
Si       1.17245646       1.76870304      -1.10474656       0.00000000
Si      -1.77906348      -1.00597266      -1.25322422       0.00000000
Si       1.38792429      -1.14917805       2.79118790       0.00000000
Si      -0.30771810      -2.27968776      -2.60932249       0.00000000
Si       2.41424316       0.44176851      -2.61124409       0.00000000
Si       0.27624582       3.05740494       1.95096972       0.00000000
Si       1.15567776      -3.62216295      -1.00993635       0.00000000
Si       2.30725044       3.19904649       0.62191106       0.00000000
Si      -3.04429149       0.45063027      -2.62418055       0.00000000
