10
Lattice="16.28999089631971 0.0 0.0 0.0 16.28999089631971 0.0 0.0 0.0 34.31420841018396" Properties=species:S:1:pos:R:3:initial_magmoms:R:1 pbc="T T T"
Si       2.34984879       0.04671972      -0.11790369       0.00000000
Si      -0.81062298       2.05449480      -0.84831633       0.00000000
Si      -0.11070684      -1.35400851      -2.02574043       0.00000000
Si      -0.42388209      -0.04530249       2.45230059       0.00000000
Si      -0.03490947      -3.41583381      -0.86911076       0.00000000
Si       2.66709654       0.92427831      -2.27472446       0.00000000
Si      -1.04919003      -3.24599427       1.24708197       0.00000000
Si      -1.22329755       3.21185043       1.18339477       0.00000000
Si      -2.20556826       1.53451800       2.49100704       0.00000000
Si       1.03881330       2.68550424      -2.27390092       0.00000000
