10
Lattice="16.28999089631971 0.0 0.0 0.0 16.28999089631971 0.0 0.0 0.0 34.31420841018396" Properties=species:S:1:pos:R:3:initial_magmoms:R:1 pbc="T T T"
Si       0.98227071       1.67733243      -1.30761227       0.00000000
Si      -2.09554560      -0.69273225      -0.79852639       0.00000000
Si      -0.62400474       0.96692553       2.06125565       0.00000000
Si       1.78168617      -1.57982049      -0.03870645       0.00000000
Si      -0.67360779      -0.94429872       3.39467222       0.00000000
Si      -3.41236730       1.15502616      -0.24562124       0.00000000
Si       1.39494528       0.51997680      -3.33932337       0.00000000
Si      -2.31044328      -2.83665915       0.11433501       0.00000000
Si       2.20556826      -1.53451800      -2.49100704       0.00000000
Si       3.37025439      -0.56708748       1.46295278       0.00000000
