10
Lattice="16.28999089631971 0.0 0.0 0.0 16.28999089631971 0.0 0.0 0.0 34.31420841018396" Properties=species:S:1:pos:R:3:initial_magmoms:R:1 pbc="T T T"
Si       2.25978138      -0.25811505      -0.49288957       0.00000000
Si      -0.05633082      -1.10954448       2.11996729       0.00000000
Si      -1.58856822      -1.01273301      -1.50165923       0.00000000
Si       0.15086169       2.38584969       0.30738685       0.00000000
Si       2.98682037       0.96326028       1.37435344       0.00000000
Si       1.47215988       0.32987250       3.21431664       0.00000000
Si       2.33188092       0.61312302      -2.70962298       0.00000000
Si      -1.46844576      -3.29092209      -0.69451997       0.00000000
Si       2.69410536      -2.52565047      -0.19939998       0.00000000
Si      -0.58880205       3.25865160      -1.68366189       0.00000000
