10
Lattice="16.28999089631971 0.0 0.0 0.0 16.28999089631971 0.0 0.0 0.0 34.31420841018396" Properties=species:S:1:pos:R:3:initial_magmoms:R:1 pbc="T T T"
Si      -0.93999816      -1.58110740       1.58948447       0.00000000
Si       1.66180806       1.09063179       1.41817069       0.00000000
Si       0.82209114      -1.33059978      -1.89016491       0.00000000
Si      -1.97284932       1.63592325      -0.03410834       0.00000000
Si      -0.93726144      -3.37696587      -1.33506365       0.00000000
Si      -2.62366740      -2.69229717       0.25231252       0.00000000
Si      -2.34518985      -0.30936339       2.98489999       0.00000000
Si       0.36359280       2.40735249       2.95804911       0.00000000
Si      -1.16023896       3.51469782       1.51252452       0.00000000
Si       3.15423270       2.52739350       0.05291254       0.00000000
