10
Lattice="16.28999089631971 0.0 0.0 0.0 16.28999089631971 0.0 0.0 0.0 34.31420841018396" Properties=species:S:1:pos:R:3:initial_magmoms:R:1 pbc="T T T"
Si       0.36753498       1.24344828       1.85077218       0.00000000
Si       1.51558902      -1.81885995       0.22283659       0.00000000
Si       0.29139552       1.36428750      -1.94712653       0.00000000
Si      -2.55490731      -0.16109181      -0.31977429       0.00000000
Si      -1.68541227      -1.96408530      -1.65871545       0.00000000
Si      -0.54674127      -0.48843936      -3.12578593       0.00000000
Si      -0.15343551      -3.41907552      -0.55420909       0.00000000
Si      -1.76808402       2.18110068       2.05768697       0.00000000
Si      -3.33356931       0.38134890       1.81985506       0.00000000
Si      -1.28875077       3.27153603      -1.82688948       0.00000000
