10
Lattice="16.28999089631971 0.0 0.0 0.0 16.28999089631971 0.0 0.0 0.0 34.31420841018396" Properties=species:S:1:pos:R:3:initial_magmoms:R:1 pbc="T T T"
Si      -0.00847080      -1.33390665      -1.95549920       0.00000000
Si      -1.18413639       2.05664508      -0.11358009       0.00000000
Si       2.35682091       0.42191100      -0.07144222       0.00000000
Si      -0.92701503      -1.43260776       1.86847832       0.00000000
Si       3.08705274      -1.80801081      -0.47789425       0.00000000
Si       1.10146464      -2.68657775       2.36376988       0.00000000
Si       1.45200915      -3.13338150      -1.51088975       0.00000000
Si      -1.97391794      -2.66999942      -1.87592451       0.00000000
Si      -2.61513144      -2.74948973       0.43935937       0.00000000
Si       2.94091515       2.05402239      -1.70521123       0.00000000
