10
Lattice="16.28999089631971 0.0 0.0 0.0 16.28999089631971 0.0 0.0 0.0 34.31420841018396" Properties=species:S:1:pos:R:3:initial_magmoms:R:1 pbc="T T T"
Si       1.46047995      -1.79947485       0.44460945       0.00000000
Si       0.00847080       1.33390665       1.95549920       0.00000000
Si      -1.96544714      -1.33609277       0.07957469       0.00000000
Si       1.03677705       1.09755504      -1.90052781       0.00000000
Si       3.09552354      -0.47410416       1.47760495       0.00000000
Si       2.36529171       1.75581765       1.88405698       0.00000000
Si      -0.81990828       1.37661903      -3.28589612       0.00000000
Si      -2.60666064      -1.41558308       2.39485857       0.00000000
Si      -0.91854423      -0.09870111       3.82397752       0.00000000
Si      -3.44874680      -0.83471263      -1.72765273       0.00000000
