10
Lattice="16.28999089631971 0.0 0.0 0.0 16.28999089631971 0.0 0.0 0.0 34.31420841018396" Properties=species:S:1:pos:R:3:initial_magmoms:R:1 pbc="T T T"
Si      -1.63421280      -1.46240217       0.83067882       0.00000000
Si      -0.62859852       2.22757605       0.56978775       0.00000000
Si       2.09152197      -0.67201137       0.98320556       0.00000000
Si       0.37185183      -0.45525663      -2.36418165       0.00000000
Si      -0.54907074      -3.50377442       0.25914105       0.00000000
Si       1.31453784       3.61149300       0.19562541       0.00000000
Si       2.91993363      -2.55848785      -0.26181756       0.00000000
Si       2.66566302      -0.16107552      -2.86331641       0.00000000
Si       3.73686084       1.05316479       0.79087432       0.00000000
Si      -2.84801328       2.84622138      -0.29949458       0.00000000
