10
Lattice="16.28999089631971 0.0 0.0 0.0 16.28999089631971 0.0 0.0 0.0 34.31420841018396" Properties=species:S:1:pos:R:3:initial_magmoms:R:1 pbc="T T T"
Si      -2.25461745      -0.66485778       0.06087344       0.00000000
Si       0.98016930      -1.08695581       1.89689050       0.00000000
Si       0.16729830       2.26369261       0.80542355       0.00000000
Si       0.59111523      -0.54094952      -2.28302850       0.00000000
Si       2.46110949       2.55787372       0.30628880       0.00000000
Si      -0.75362427      -0.78482518       3.42874625       0.00000000
Si      -2.42044965      -1.81601476       2.15757569       0.00000000
Si       2.69399133       0.56565885      -2.67860292       0.00000000
Si       1.13829633      -2.87157418      -2.32894094       0.00000000
Si      -0.58647258       3.85051780      -0.77313386       0.00000000
