10
Lattice="16.28999089631971 0.0 0.0 0.0 16.28999089631971 0.0 0.0 0.0 34.31420841018396" Properties=species:S:1:pos:R:3:initial_magmoms:R:1 pbc="T T T"
Si       1.28414070      -0.05313798      -1.96518306       0.00000000
Si      -0.74679876      -1.89394056       1.22770919       0.00000000
Si       1.91324421       0.79004871       1.27730697       0.00000000
Si      -1.68534711       1.90866672      -0.05237076       0.00000000
Si      -2.13459273      -0.56694087       2.65522567       0.00000000
Si       0.60137793       2.17860831       2.66333069       0.00000000
Si       3.26189331       0.80436762      -1.01992903       0.00000000
Si      -3.51940563       0.79827516       1.17695502       0.00000000
Si      -0.62561745       3.62312406       1.14824430       0.00000000
Si       1.47634641      -2.19030453      -2.87715229       0.00000000
