10
Lattice="16.28999089631971 0.0 0.0 0.0 16.28999089631971 0.0 0.0 0.0 34.31420841018396" Properties=species:S:1:pos:R:3:initial_magmoms:R:1 pbc="T T T"
Si      -1.39246920       1.90791738       0.12788913       0.00000000
Si       0.35290656       0.18968076      -2.39503014       0.00000000
Si       0.00711873      -2.16529938       1.19108115       0.00000000
Si       1.85898222       0.09327654       1.75671688       0.00000000
Si       3.24487026       1.13762844      -1.28101874       0.00000000
Si      -2.23614459      -2.93923728      -0.21394921       0.00000000
Si       0.48865113       0.50487597       3.63373944       0.00000000
Si      -3.05872443       1.22991129       1.68781391       0.00000000
Si      -0.78568299      -1.45422459       3.32974970       0.00000000
Si       2.07853884      -1.78606818      -2.54323329       0.00000000
