10
Lattice="16.28999089631971 0.0 0.0 0.0 16.28999089631971 0.0 0.0 0.0 34.31420841018396" Properties=species:S:1:pos:R:3:initial_magmoms:R:1 pbc="T T T"
Si       1.36052451       1.34959392       1.39785869       0.00000000
Si      -1.35405738      -1.36663326       1.39658906       0.00000000
Si       1.49403735      -1.25248923      -1.48785118       0.00000000
Si      -1.41195204       1.38798945      -1.51787270       0.00000000
Si       2.72394864       2.69001657       0.04765903       0.00000000
Si      -2.71016730       2.70471015       0.02200571       0.00000000
Si       2.72103273      -2.69700498       0.02723520       0.00000000
Si      -2.70607851      -2.72297124       0.02838130       0.00000000
Si       0.00158013       2.70787041       2.75790310       0.00000000
Si      -2.71528236      -0.00661374       2.75783447       0.00000000
