10
Lattice="16.28999089631971 0.0 0.0 0.0 16.28999089631971 0.0 0.0 0.0 34.31420841018396" Properties=species:S:1:pos:R:3:initial_magmoms:R:1 pbc="T T T"
Si       1.55618370       1.28635614      -1.28710750       0.00000000
Si      -1.30549689       1.35782037       1.50611665       0.00000000
Si      -1.18125306      -1.26952857      -1.69520661       0.00000000
Si       1.39390272      -1.33244055       1.47903929       0.00000000
Si      -0.24373098       2.21079735      -2.73379534       0.00000000
Si      -2.13381081       0.64985697      -2.78482059       0.00000000
Si      -2.53540818      -2.58468543      -0.02939357       0.00000000
Si      -2.67589314       2.64675033       0.17387019       0.00000000
Si       2.64438828      -2.85671214       0.10671725       0.00000000
Si       2.78741448       2.73188187       0.07699770       0.00000000
