10
Lattice="16.28999089631971 0.0 0.0 0.0 16.28999089631971 0.0 0.0 0.0 34.31420841018396" Properties=species:S:1:pos:R:3:initial_magmoms:R:1 pbc="T T T"
Si       1.71470169      -1.62469944       0.63210239       0.00000000
Si      -1.85302008      -1.08737379      -1.37545150       0.00000000
Si       1.34198649       0.82878633      -2.01825992       0.00000000
Si      -0.44079111       0.77015862       2.43987884       0.00000000
Si      -0.58363812       0.01663209      -3.16209039       0.00000000
Si       3.28132728      -0.57474378      -1.94671476       0.00000000
Si       1.75470993       0.75170205       3.45746726       0.00000000
Si       0.71175897      -3.47105691       1.96500424       0.00000000
Si      -3.88402470      -1.22901534      -0.04639284       0.00000000
Si      -0.98797221       3.10078327       2.48579127       0.00000000
