10
Lattice="16.28999089631971 0.0 0.0 0.0 16.28999089631971 0.0 0.0 0.0 34.31420841018396" Properties=species:S:1:pos:R:3:initial_magmoms:R:1 pbc="T T T"
Si      -0.54718110       2.33062465       0.04591244       0.00000000
Si      -1.96157664      -1.05959934       0.89168952       0.00000000
Si       2.19550104      -0.01845657       1.01758842       0.00000000
Si       0.44079111      -0.77015862      -2.43987884       0.00000000
Si       2.15549280      -2.39485806      -1.80777645       0.00000000
Si      -1.37070576      -1.80434556       3.01227447       0.00000000
Si       2.72802114       2.23720476       1.35973558       0.00000000
Si       1.55569500       3.43723302      -0.34966198       0.00000000
Si      -1.13829633       2.87157418       2.32894094       0.00000000
Si      -2.84829021      -2.84425029      -0.33428921       0.00000000
