10
Lattice="16.28999089631971 0.0 0.0 0.0 16.28999089631971 0.0 0.0 0.0 34.31420841018396" Properties=species:S:1:pos:R:3:initial_magmoms:R:1 pbc="T T T"
Si       0.83829969       1.46935800       1.62570516       0.00000000
Si       0.53380701      -2.09996019       0.91821442       0.00000000
Si       0.48897693       0.91873971      -2.15218835       0.00000000
Si      -2.30215167      -0.67737078      -0.14875218       0.00000000
Si      -0.19323198      -3.32133552      -0.94902859       0.00000000
Si      -1.10130174      -0.30524202      -3.33743609       0.00000000
Si      -3.21737274       0.34753086       1.67731376       0.00000000
Si      -3.04181541       0.19543113      -2.13980092       0.00000000
Si      -0.44139384       3.40467516       1.45228105       0.00000000
Si       2.78313021      -2.04077862       1.48052166       0.00000000
