10
Lattice="16.28999089631971 0.0 0.0 0.0 16.28999089631971 0.0 0.0 0.0 34.31420841018396" Properties=species:S:1:pos:R:3:initial_magmoms:R:1 pbc="T T T"
Si       1.27307979       1.15419537       1.59854343       0.00000000
Si       1.81516212      -0.84269799      -1.36014735       0.00000000
Si      -0.97495650       1.93155417      -1.18977721       0.00000000
Si      -1.49242464      -1.43676171       1.36525815       0.00000000
Si       1.08014103       3.22635735      -1.07890794       0.00000000
Si       2.77948125       2.28261996       0.22503058       0.00000000
Si       1.17232614      -0.84354507      -3.62094024       0.00000000
Si      -0.08508267       2.59868294       2.90720572       0.00000000
Si       2.76771987      -2.76208353      -0.27053337       0.00000000
Si       2.64347604      -0.13473459       2.93078988       0.00000000
