10
Lattice="16.28999089631971 0.0 0.0 0.0 16.28999089631971 0.0 0.0 0.0 34.31420841018396" Properties=species:S:1:pos:R:3:initial_magmoms:R:1 pbc="T T T"
Si      -0.92576070       1.56437757       1.53415268       0.00000000
Si      -1.89007983      -1.56094038      -0.05102526       0.00000000
Si      -0.10070478       0.93338442      -2.29521005       0.00000000
Si       1.79991468      -0.92444121       1.44668784       0.00000000
Si       2.38783707      -0.38375982      -0.82518855       0.00000000
Si       0.24373098      -2.21079735       2.73379534       0.00000000
Si      -0.51214131      -1.14243399      -3.35974034       0.00000000
Si      -2.22055506       1.92438789      -2.13626655       0.00000000
Si      -2.62510092       2.50811496       0.23021415       0.00000000
Si      -0.93752208      -3.48032592       1.03858873       0.00000000
