10
Lattice="16.28999089631971 0.0 0.0 0.0 16.28999089631971 0.0 0.0 0.0 34.31420841018396" Properties=species:S:1:pos:R:3:initial_magmoms:R:1 pbc="T T T"
Si      -0.27477972       0.92162304      -2.14268160       0.00000000
Si      -1.89495054      -0.66762284       1.27535659       0.00000000
Si       0.89194266       1.95854670       1.21341598       0.00000000
Si       1.85088609      -1.70521602      -0.18776574       0.00000000
Si      -0.52572717      -1.96004932       2.68844736       0.00000000
Si       2.20852915       0.74551185       2.68855717       0.00000000
Si       0.84664017       3.03047757      -1.71049391       0.00000000
Si       0.86118714      -3.30739847       1.26782118       0.00000000
Si       3.56299508      -0.58448194       1.15375726       0.00000000
Si      -3.09571902      -2.26410542      -0.00881917       0.00000000
