10
Lattice="16.28999089631971 0.0 0.0 0.0 16.28999089631971 0.0 0.0 0.0 34.31420841018396" Properties=species:S:1:pos:R:3:initial_magmoms:R:1 pbc="T T T"
Si       1.07533548       0.61656184      -1.96085222       0.00000000
Si       1.78945650      -1.15189263       0.96992596       0.00000000
Si      -1.73521080      -1.24741719      -1.01089714       0.00000000
Si      -0.82841166       1.88647648       1.24502312       0.00000000
Si      -0.25427061       2.39741233      -2.60149885       0.00000000
Si      -2.28788163      -1.12646394       2.56526303       0.00000000
Si      -3.46900437      -0.94528656       0.52095860       0.00000000
Si       3.38568102       0.47904003       1.69001002       0.00000000
Si       0.81692721       3.61165264       1.05269187       0.00000000
Si       1.22264595      -2.20365648       2.92000351       0.00000000
