10
Lattice="16.28999089631971 0.0 0.0 0.0 16.28999089631971 0.0 0.0 0.0 34.31420841018396" Properties=species:S:1:pos:R:3:initial_magmoms:R:1 pbc="T T T"
Si      -2.28462363       0.38579607       0.18021832       0.00000000
Si      -0.24268842      -2.01201048       1.14458538       0.00000000
Si       0.98380197       1.70860923       1.33444600       0.00000000
Si       0.34570638      -0.13294269      -2.37279452       0.00000000
Si      -0.95133600      -0.84540213       3.11641815       0.00000000
Si      -2.22557238       2.71599912      -0.20863050       0.00000000
Si      -3.17558889      -1.53295416      -0.98680856       0.00000000
Si      -0.17692569       3.63249081       0.62688662       0.00000000
Si       1.85411870      -2.96531594       1.26523420       0.00000000
Si      -1.75032792      -3.29405140      -0.13132055       0.00000000
