10
Lattice="16.28999089631971 0.0 0.0 0.0 16.28999089631971 0.0 0.0 0.0 34.31420841018396" Properties=species:S:1:pos:R:3:initial_magmoms:R:1 pbc="T T T"
Si      -1.35821133      -1.34465805       1.38449330       0.00000000
Si       1.35716877       1.37371941       1.38593450       0.00000000
Si      -1.40242239       1.36660068      -1.37211959       0.00000000
Si       1.41229413      -1.50780240      -1.44919621       0.00000000
Si      -2.71125873      -2.68902288       0.00955308       0.00000000
Si       2.69586468       2.71639008       0.01401050       0.00000000
Si      -0.00338832      -2.70011637       2.74498379       0.00000000
Si       2.72888062      -2.72083725       0.02594499       0.00000000
Si       2.70945813       0.01519857       2.74484654       0.00000000
Si      -2.71823085       0.01542663       2.74343965       0.00000000
