10
Lattice="16.28999089631971 0.0 0.0 0.0 16.28999089631971 0.0 0.0 0.0 34.31420841018396" Properties=species:S:1:pos:R:3:initial_magmoms:R:1 pbc="T T T"
Si      -1.51224957      -1.17476964      -1.35023054       0.00000000
Si       1.23586573       1.54321686      -1.29958274       0.00000000
Si      -1.92003714       0.61644618       1.29409246       0.00000000
Si       1.47932815      -1.16028783       1.49822780       0.00000000
Si      -2.13227955       2.68651422       0.22184148       0.00000000
Si      -0.11961747      -2.46591504      -2.71789271       0.00000000
Si       2.52890425      -2.70018153       0.06766766       0.00000000
Si       0.15838767      -3.03323058       2.12103104       0.00000000
Si       2.59802924       0.24992118      -2.72413790       0.00000000
Si       2.89869866       2.43841752       0.38610369       0.00000000
