10
Lattice="16.28999089631971 0.0 0.0 0.0 16.28999089631971 0.0 0.0 0.0 34.31420841018396" Properties=species:S:1:pos:R:3:initial_magmoms:R:1 pbc="T T T"
Si       0.88103229       1.56294405       1.55460608       0.00000000
Si      -2.26919700      -0.07022619       0.69850042       0.00000000
Si       0.20333178       0.63392535      -2.29713165       0.00000000
Si       0.01936881      -2.38927059       0.25196937       0.00000000
Si       0.61007679      -2.84783409      -1.93851366       0.00000000
Si      -0.83414574      -1.29741705      -3.20951265       0.00000000
Si       1.28868465       0.08980677       3.39553008       0.00000000
Si      -0.71107479       2.82813948      -2.28165593       0.00000000
Si       2.81710205      -1.34166069       2.14371274       0.00000000
Si      -0.68158989       3.40733043       1.58758205       0.00000000
