10
Lattice="16.28999089631971 0.0 0.0 0.0 16.28999089631971 0.0 0.0 0.0 34.31420841018396" Properties=species:S:1:pos:R:3:initial_magmoms:R:1 pbc="T T T"
Si      -1.97775261      -0.85750560      -0.94525403       0.00000000
Si       0.44999496       1.72867851      -1.54915012       0.00000000
Si       1.42076493      -1.81679112      -0.70375049       0.00000000
Si      -1.34864910      -0.01431891       2.29723601       0.00000000
Si      -3.26189331      -0.80436762       1.01992903       0.00000000
Si       1.29228570       2.54672973       2.30428415       0.00000000
Si       1.07375535       0.55224729      -3.62546972       0.00000000
Si       3.18904021      -1.90320957       0.90661621       0.00000000
Si       2.32859034       2.91846753      -0.95819049       0.00000000
Si       0.05377329      -1.38091959       3.66935559       0.00000000
