10
Lattice="16.28999089631971 0.0 0.0 0.0 16.28999089631971 0.0 0.0 0.0 34.31420841018396" Properties=species:S:1:pos:R:3:initial_magmoms:R:1 pbc="T T T"
Si      -1.35531171       1.35633798      -1.35771104       0.00000000
Si      -1.35645201      -1.35685926       1.35654436       0.00000000
Si       1.35871632       1.35715248       1.35613259       0.00000000
Si       1.36234899      -1.35643572      -1.35922087       0.00000000
Si      -2.71336014       2.71358820      -0.00051471       0.00000000
Si      -2.71305063      -2.71472850      -0.00171571       0.00000000
Si      -2.71363707       0.00014661       2.71463286       0.00000000
Si       0.00092853       2.71495656       2.71360343       0.00000000
Si       0.00091224      -2.71458189       2.71404952       0.00000000
Si       2.71463835      -2.71495656      -0.00030883       0.00000000
