10
Lattice="16.28999089631971 0.0 0.0 0.0 16.28999089631971 0.0 0.0 0.0 34.31420841018396" Properties=species:S:1:pos:R:3:initial_magmoms:R:1 pbc="T T T"
Si      -1.35612621      -1.35469269      -1.35795124       0.00000000
Si       1.35913772      -1.35423657       1.35685319       0.00000000
Si      -1.35451350       1.36088289       1.36148561       0.00000000
Si       1.35890863       1.36081773      -1.35777967       0.00000000
Si      -2.71437012      -2.71122615      -0.00116668       0.00000000
Si       0.00166158      -2.71249677      -2.71542209       0.00000000
Si       2.71611871      -2.71225242       0.00027451       0.00000000
Si      -2.71371852       0.00316026      -2.71480443       0.00000000
Si       2.71418508       2.71578735      -0.00106374       0.00000000
Si      -2.71303434       2.71813311       0.00048040       0.00000000
