10
Lattice="16.28999089631971 0.0 0.0 0.0 16.28999089631971 0.0 0.0 0.0 34.31420841018396" Properties=species:S:1:pos:R:3:initial_magmoms:R:1 pbc="T T T"
Si       1.74449610       1.30235292       0.79440868       0.00000000
Si      -1.98866691       0.10352295       1.26019001       0.00000000
Si       1.06095141      -1.92189420       0.95939149       0.00000000
Si      -0.44558037      -0.18849159      -2.39863314       0.00000000
Si      -3.13538517      -1.43031087      -0.10205051       0.00000000
Si       2.46529602      -2.34505953      -0.98063200       0.00000000
Si       0.77726106      -2.24485974      -2.67177439       0.00000000
Si      -2.81813742      -0.55275228      -2.25887129       0.00000000
Si       0.76365891       3.32977374       1.35898067       0.00000000
Si       3.38889015       1.54077336      -0.84135055       0.00000000
