10
Lattice="16.28999089631971 0.0 0.0 0.0 16.28999089631971 0.0 0.0 0.0 34.31420841018396" Properties=species:S:1:pos:R:3:initial_magmoms:R:1 pbc="T T T"
Si       1.67050692      -0.99844668      -1.39943714       0.00000000
Si      -1.71470169       1.62469944      -0.63210239       0.00000000
Si      -1.00294272      -1.84635747       1.33290186       0.00000000
Si       1.85008788       1.45086885       1.43443766       0.00000000
Si       1.56662559       1.04995566      -2.57881715       0.00000000
Si      -0.06195087      -2.51111979      -2.31943590       0.00000000
Si      -0.37271520       2.45348577      -2.65036231       0.00000000
Si       0.04000824       2.37640149       2.82536487       0.00000000
Si      -2.15549280       2.39485806       1.80777645       0.00000000
Si       0.68097087      -0.79221528      -3.87067919       0.00000000
