10
Lattice="16.28999089631971 0.0 0.0 0.0 16.28999089631971 0.0 0.0 0.0 34.31420841018396" Properties=species:S:1:pos:R:3:initial_magmoms:R:1 pbc="T T T"
Si       1.87859538       1.18978902       0.59095963       0.00000000
Si      -0.44999496      -1.72867851       1.54915012       0.00000000
Si       0.62376039      -1.17643122      -2.07631960       0.00000000
Si      -1.80243963       1.72729386      -0.15125712       0.00000000
Si      -2.42774757      -2.58618411       0.60389609       0.00000000
Si      -3.08446263      -1.50879609      -1.39188801       0.00000000
Si       0.97076997      -3.54546963       0.84539963       0.00000000
Si       1.78448805      -3.10031280      -1.36876022       0.00000000
Si      -1.42488630      -2.09292291      -2.91183672       0.00000000
Si      -1.00835100       2.94054048      -2.33624987       0.00000000
