10
Lattice="16.28999089631971 0.0 0.0 0.0 16.28999089631971 0.0 0.0 0.0 34.31420841018396" Properties=species:S:1:pos:R:3:initial_magmoms:R:1 pbc="T T T"
Si       0.87468896       0.37998054       2.08687469       0.00000000
Si      -1.87859538      -1.18978902      -0.59095963       0.00000000
Si       0.73049966       1.57213161      -1.55251291       0.00000000
Si      -1.03630464      -0.37173780       3.26247464       0.00000000
Si       2.88242495      -1.24216137       1.93048413       0.00000000
Si      -1.25483499      -2.36622024      -2.66727922       0.00000000
Si      -3.68103501       0.53750484      -0.74221674       0.00000000
Si      -1.01084337       2.95036335      -2.25430750       0.00000000
Si       1.10877463       0.44821935      -3.66060748       0.00000000
Si      -2.32859034      -2.91846753       0.95819049       0.00000000
