10
Lattice="16.28999089631971 0.0 0.0 0.0 16.28999089631971 0.0 0.0 0.0 34.31420841018396" Properties=species:S:1:pos:R:3:initial_magmoms:R:1 pbc="T T T"
Si       1.34456261       1.37029851       1.38107560       0.00000000
Si      -1.36800162      -1.34781831       1.38176189       0.00000000
Si      -1.34100909       1.36511829      -1.39717927       0.00000000
Si       1.38469628      -1.48501269      -1.44203826       0.00000000
Si      -2.57223987      -0.08040744      -2.76128446       0.00000000
Si       2.69872262       2.70870120      -0.00819081       0.00000000
Si       2.71317185      -2.71096551       0.03313725       0.00000000
Si      -2.73452085      -2.69920413       0.00486233       0.00000000
Si      -2.72792340       2.71246743       0.02344691       0.00000000
Si       2.70453815       0.00923643       2.74232101       0.00000000
