10
Lattice="16.28999089631971 0.0 0.0 0.0 16.28999089631971 0.0 0.0 0.0 34.31420841018396" Properties=species:S:1:pos:R:3:initial_magmoms:R:1 pbc="T T T"
Si      -1.35231435       1.35705474      -1.35777967       0.00000000
Si      -1.35567009      -1.35708732       1.35705907       0.00000000
Si       1.35930276       1.35814617       1.35733359       0.00000000
Si       1.36071999      -1.35674523      -1.36069638       0.00000000
Si      -2.70519885      -0.01787013      -2.71051858       0.00000000
Si       0.00079821       2.70354051      -2.71901135       0.00000000
Si      -2.71293660       2.71409319      -0.00034314       0.00000000
Si      -2.71248048       0.00004887       2.71459854       0.00000000
Si      -2.71236645      -2.71630863      -0.00020589       0.00000000
Si       0.00192222      -2.71494027       2.71391226       0.00000000
