10
Lattice="16.28999089631971 0.0 0.0 0.0 16.28999089631971 0.0 0.0 0.0 34.31420841018396" Properties=species:S:1:pos:R:3:initial_magmoms:R:1 pbc="T T T"
Si       1.48304160      -1.15540083      -1.45385951       0.00000000
Si      -0.84290976      -1.92942018       1.15659536       0.00000000
Si      -1.22857551       1.52919510      -1.44332504       0.00000000
Si       1.32730920       1.35970905       1.56764549       0.00000000
Si       1.09643103      -3.33295029       1.22814052       0.00000000
Si       2.65106718       2.67702434      -0.04766246       0.00000000
Si       2.87964489      -2.44576431      -0.05023603       0.00000000
Si       0.12549816      -2.52250650      -2.81555100       0.00000000
Si      -2.58888825       0.19222200      -2.81664906       0.00000000
Si      -2.57082264       2.85785963      -0.03692211       0.00000000
