10
Lattice="16.28999089631971 0.0 0.0 0.0 16.28999089631971 0.0 0.0 0.0 34.31420841018396" Properties=species:S:1:pos:R:3:initial_magmoms:R:1 pbc="T T T"
Si      -1.76674728      -1.39129632       0.79090863       0.00000000
Si       0.86290248       1.49656230       1.65075455       0.00000000
Si      -0.40765236       1.47313728      -1.84092400       0.00000000
Si       1.52841739      -1.43146746      -1.25181734       0.00000000
Si       2.63854831       2.20779999       0.20255689       0.00000000
Si       1.82368993       2.30422050      -2.07535880       0.00000000
Si      -1.28868465      -0.08980677      -3.39553008       0.00000000
Si      -3.66917493      -0.51018651      -0.33089210       0.00000000
Si       0.26711527      -3.38119964      -1.58058195       0.00000000
Si       3.38510272      -1.71053145       0.13355097       0.00000000
