10
Lattice="16.28999089631971 0.0 0.0 0.0 16.28999089631971 0.0 0.0 0.0 34.31420841018396" Properties=species:S:1:pos:R:3:initial_magmoms:R:1 pbc="T T T"
Si      -0.07139581       1.07973378       2.18176722       0.00000000
Si       0.89011818       1.67062095      -1.59324390       0.00000000
Si      -1.66283293      -0.89520066      -1.68568643       0.00000000
Si       1.90306296      -2.01342771      -0.36904952       0.00000000
Si       2.27976921       0.59611626       2.05425555       0.00000000
Si      -2.89869866      -2.43841752      -0.38610369       0.00000000
Si      -3.29852042       1.76076981       0.75573655       0.00000000
Si      -0.30066942      -2.18849634      -3.11024159       0.00000000
Si       2.52123588       3.00967524      -0.40487357       0.00000000
Si       2.40169986       0.54812592      -3.09847181       0.00000000
