10
Lattice="16.28999089631971 0.0 0.0 0.0 16.28999089631971 0.0 0.0 0.0 34.31420841018396" Properties=species:S:1:pos:R:3:initial_magmoms:R:1 pbc="T T T"
Si       1.68640596      -0.68466870      -1.58737617       0.00000000
Si       1.68366924       1.11118977       1.33717196       0.00000000
Si      -1.15551649      -1.76318073       1.28202899       0.00000000
Si      -2.00773598       1.62214191       0.15639056       0.00000000
Si       0.27847755       2.38293378       2.73258747       0.00000000
Si      -2.46137732      -0.34083567       2.71107245       0.00000000
Si      -2.88242495       1.24216137      -1.93048413       0.00000000
Si       2.62366740       2.69229717      -0.25231252       0.00000000
Si       2.80968291      -2.56109751      -0.44155548       0.00000000
Si      -1.04999801       3.60888660       1.25741197       0.00000000
