10
Lattice="16.28999089631971 0.0 0.0 0.0 16.28999089631971 0.0 0.0 0.0 34.31420841018396" Properties=species:S:1:pos:R:3:initial_magmoms:R:1 pbc="T T T"
Si      -1.35759824       1.35265208       1.36186306       0.00000000
Si       1.35997554      -1.36106208       1.36124541       0.00000000
Si       1.35416001       1.33840269      -1.38926641       0.00000000
Si      -1.34456261      -1.37029851      -1.38107560       0.00000000
Si       2.55356013      -0.25720281      -2.82031382       0.00000000
Si      -2.71266197       2.71333800       0.00106374       0.00000000
Si       0.00108654       2.71125288       2.71809860       0.00000000
Si      -2.71256423      -2.71811682       0.00068628       0.00000000
Si       2.71795881       2.71274179      -0.00370594       0.00000000
Si      -2.71398146      -0.00322542       2.71871625       0.00000000
