10
Lattice="16.28999089631971 0.0 0.0 0.0 16.28999089631971 0.0 0.0 0.0 34.31420841018396" Properties=species:S:1:pos:R:3:initial_magmoms:R:1 pbc="T T T"
Si       1.35684297      -1.35897696      -1.35300999       0.00000000
Si       1.35619137       1.35751086       1.35702476       0.00000000
Si      -1.35807124      -1.35778779       1.35671593       0.00000000
Si      -1.35997554       1.36106208      -1.36124541       0.00000000
Si       2.71230129      -2.71480995      -0.00020589       0.00000000
Si       2.71373481       0.00013032       2.71470149       0.00000000
Si       2.71463076       2.71414969       0.00030883       0.00000000
Si      -0.00114030       2.71448108       2.71466717       0.00000000
Si       0.00863370      -2.72020194      -2.70918376       0.00000000
Si      -0.00074934      -2.71551042       2.71459854       0.00000000
