10
Lattice="16.28999089631971 0.0 0.0 0.0 16.28999089631971 0.0 0.0 0.0 34.31420841018396" Properties=species:S:1:pos:R:3:initial_magmoms:R:1 pbc="T T T"
Si       1.32985044       1.35966114       1.35486296       0.00000000
Si       1.35521397      -1.35668007      -1.35702476       0.00000000
Si      -1.36185703       1.35506736      -1.35767673       0.00000000
Si      -1.36378414      -1.37301894       1.38653499       0.00000000
Si       2.60268588      -0.13413186       2.60026354       0.00000000
Si       2.71160082       2.71394658       0.00404908       0.00000000
Si       2.71290402      -0.00003258      -2.71391226       0.00000000
Si       2.71327869      -2.71461447       0.00439222       0.00000000
Si      -2.71613304       2.71210581      -0.00109806       0.00000000
Si      -0.00197109       2.71431818      -2.71394657       0.00000000
