10
Lattice="16.28999089631971 0.0 0.0 0.0 16.28999089631971 0.0 0.0 0.0 34.31420841018396" Properties=species:S:1:pos:R:3:initial_magmoms:R:1 pbc="T T T"
Si       1.31753504      -1.30802184      -1.53991959       0.00000000
Si      -1.66163622       1.17636510      -1.38231434       0.00000000
Si       0.07166281      -1.36629117       2.05748109       0.00000000
Si       1.32063340       2.11628996       0.16546321       0.00000000
Si       2.38296620      -1.97035695       1.77552108       0.00000000
Si      -1.23042363       3.49287641       0.43675149       0.00000000
Si      -0.33787824       2.49368039      -2.99762229       0.00000000
Si       3.66715577       1.41560819       0.27859721       0.00000000
Si       2.56331279       0.06228272      -3.01162250       0.00000000
Si      -0.10930052      -2.62910826      -3.00019586       0.00000000
