10
Lattice="16.290000149 0.0 0.0 0.0 16.290000149 0.0 0.0 0.0 29.1751946751" Properties=species:S:1:pos:R:3:initial_magmoms:R:1 pbc="T T T"
Si      -1.36997272       1.38750076       1.31025799       0.00000000
Si      -1.35879778      -1.34669431      -1.36878343       0.00000000
Si       1.35581671       1.34640109      -1.37248868       0.00000000
Si       1.34817670      -1.33126768       1.40764479       0.00000000
Si       2.66230730      -2.72587088       0.03363900       0.00000000
Si       0.01194057       2.73890289       2.65082901       0.00000000
Si      -2.69219945      -2.71161876      -0.00035010       0.00000000
Si      -0.06274908      -2.61778673       2.78710635       0.00000000
Si      -0.00042354       2.69651630      -2.74153469       0.00000000
Si       2.73056240       2.70922250      -0.03921146       0.00000000
