10
Lattice="16.290000149 0.0 0.0 0.0 16.290000149 0.0 0.0 0.0 29.1751946751" Properties=species:S:1:pos:R:3:initial_magmoms:R:1 pbc="T T T"
Si       1.62241885      -0.17508492      -1.67150525       0.00000000
Si      -0.42002136       2.29293644      -0.29490287       0.00000000
Si       0.26422380      -0.51030054       2.30072493       0.00000000
Si      -1.89833888      -1.30161988      -0.63336430       0.00000000
H        1.35821134      -2.21361554       1.51830631       0.00000000
H       -2.81624781      -0.51359112      -1.55457107       0.00000000
Si      -1.47619981       1.03408921       2.76113459       0.00000000
Si       0.05825304      -0.95369806      -3.26557954       0.00000000
Si      -2.31104603       2.27946624       1.04943175       0.00000000
Si      -0.84644470      -2.78977656      -2.08914817       0.00000000
