10
Lattice="16.290000149 0.0 0.0 0.0 16.290000149 0.0 0.0 0.0 29.1751946751" Properties=species:S:1:pos:R:3:initial_magmoms:R:1 pbc="T T T"
Si       1.34426710       1.35540295      -1.36531159       0.00000000
Si      -1.35682669      -1.36289309      -1.35011131       0.00000000
Si       1.39149181      -1.34802032       1.33178929       0.00000000
Si      -1.38401470       1.35550069       1.33400660       0.00000000
Si       0.02904507      -2.70116547       2.68017926       0.00000000
Si      -0.02826315       2.72195477       2.67288546       0.00000000
Si       2.70259247      -0.00258848      -2.70570755       0.00000000
Si      -2.70330109      -0.00235553      -2.70547415       0.00000000
Si       2.71761185       2.70323756      -0.02237737       0.00000000
Si       2.71075376      -2.71778127      -0.05093989       0.00000000
