10
Lattice="16.290000149 0.0 0.0 0.0 16.290000149 0.0 0.0 0.0 29.1751946751" Properties=species:S:1:pos:R:3:initial_magmoms:R:1 pbc="T T T"
Si      -1.33234282       1.36594258      -1.37216776       0.00000000
Si       1.37098107       1.37154471       1.33030135       0.00000000
Si       1.36925759      -1.34063443      -1.37978248       0.00000000
Si      -1.37847610      -1.32778162       1.38745556       0.00000000
Si      -2.63617814      -2.69612534      -0.06684037       0.00000000
Si       0.06211294      -2.67064778       2.68262998       0.00000000
Si      -0.02425581       2.71279001       2.67667824       0.00000000
Si      -2.70158249       2.70778898      -0.00703122       0.00000000
Si      -2.66406662       0.01114236      -2.75583054       0.00000000
Si       2.77781970       0.03077181       2.65955240       0.00000000
