10
Lattice="16.290000149 0.0 0.0 0.0 16.290000149 0.0 0.0 0.0 29.1751946751" Properties=species:S:1:pos:R:3:initial_magmoms:R:1 pbc="T T T"
Si      -1.26864452       1.35513253       1.43267711       0.00000000
Si       1.37325353      -1.33579630       1.35577130       0.00000000
Si       1.33401092       1.37411038      -1.36516571       0.00000000
Si      -1.38369868      -1.35259129      -1.33695330       0.00000000
Si      -0.12224668      -2.52689179       2.73555378       0.00000000
Si       2.65767117       0.14141349       2.65301715       0.00000000
Si       0.01153821      -2.69383660      -2.68333018       0.00000000
Si      -2.66122565       2.71469594       0.07900643       0.00000000
Si      -2.68720820       0.02787219      -2.71195105       0.00000000
Si       2.71333410       0.02715543      -2.72125793       0.00000000
