10
Lattice="16.290000149 0.0 0.0 0.0 16.290000149 0.0 0.0 0.0 29.1751946751" Properties=species:S:1:pos:R:3:initial_magmoms:R:1 pbc="T T T"
Si       1.42521863       1.43391097       1.16782469       0.00000000
Si       1.43460330      -1.24510987      -1.36951281       0.00000000
Si      -1.29013543       1.41237559      -1.36078943       0.00000000
Si      -1.64289538      -1.05487525       1.43104330       0.00000000
H        0.24772040      -2.67002876       1.69516634       0.00000000
H       -1.09665910       1.41121900       2.80633280       0.00000000
Si      -0.06213006       2.51656067       2.58912348       0.00000000
Si      -2.62368371       2.48227022       0.25998016       0.00000000
Si      -3.32021154       0.62439571       1.68116224       0.00000000
Si       2.86060548      -2.46198917       0.01228276       0.00000000
