10
Lattice="16.290000149 0.0 0.0 0.0 16.290000149 0.0 0.0 0.0 29.1751946751" Properties=species:S:1:pos:R:3:initial_magmoms:R:1 pbc="T T T"
H        1.29736819       0.54716482       0.92351161       0.00000000
Si       1.22823343      -1.85290607      -0.66452341       0.00000000
Si      -1.02325636       1.33755562      -1.61799795       0.00000000
Si      -1.78627997      -0.58903012       1.44145884       0.00000000
H        0.96562234       1.25823961      -2.67101825       0.00000000
Si      -2.09772848       2.44799606       0.24749318       0.00000000
Si      -1.79325209      -0.70584571      -2.62524237       0.00000000
Si       2.47925657       1.08580996       1.97381862       0.00000000
Si      -0.30794616      -2.57644271      -2.27093880       0.00000000
Si      -2.85964437      -2.34916463       0.37951093       0.00000000
