10
Lattice="16.290000149 0.0 0.0 0.0 16.290000149 0.0 0.0 0.0 29.1751946751" Properties=species:S:1:pos:R:3:initial_magmoms:R:1 pbc="T T T"
Si       1.38999313       1.34514676       1.27574957       0.00000000
Si       1.25721334      -1.40108662      -1.36526199       0.00000000
Si      -1.31540122       1.26315919      -1.47259461       0.00000000
Si      -1.41087691      -1.40400253       1.25783600       0.00000000
Si      -2.17306973      -0.67274443      -2.51434453       0.00000000
Si      -0.46776735      -2.34149204      -2.64165283       0.00000000
Si      -0.03419271       2.70617627       2.54592085       0.00000000
Si       2.72063072      -0.06266763       2.58714540       0.00000000
Si       2.57869073      -0.07449417      -2.72973829       0.00000000
Si       2.68460831       2.66025476      -0.19307852       0.00000000
