10
Lattice="16.290000149 0.0 0.0 0.0 16.290000149 0.0 0.0 0.0 29.1751946751" Properties=species:S:1:pos:R:3:initial_magmoms:R:1 pbc="T T T"
Si       1.21637431      -1.41477022       1.44783654       0.00000000
Si      -1.48809151      -1.24786288      -1.37245951       0.00000000
Si      -1.48273210       1.30117451       1.33403578       0.00000000
Si       1.61691283       1.48404182      -0.94364250       0.00000000
Si       2.55513539      -2.77350285       0.10476812       0.00000000
Si       0.88775614       3.67577337      -0.54502181       0.00000000
Si      -2.80100037      -2.61720029       0.10751059       0.00000000
H        3.01115766      -0.75486232      -2.26382006       0.00000000
Si      -0.18357201       2.58441341       2.83858890       0.00000000
H        1.03633723      -1.08294292      -3.57270681       0.00000000
