10
Lattice="16.290000149 0.0 0.0 0.0 16.290000149 0.0 0.0 0.0 29.1751946751" Properties=species:S:1:pos:R:3:initial_magmoms:R:1 pbc="T T T"
Si       1.42418584      -1.36102951      -1.27017128       0.00000000
Si       1.35641944       1.34975683       1.35442924       0.00000000
Si      -1.32458878      -1.38644191       1.38296258       0.00000000
Si      -1.34025976       1.33582888      -1.42150301       0.00000000
Si       0.03419271      -2.70617627      -2.54592085       0.00000000
Si      -2.68550426       2.61516404       0.03959074       0.00000000
Si       2.69669549       2.70319520      -0.03069230       0.00000000
Si       2.70259247      -0.02928942       2.70961703       0.00000000
Si       0.01319490       2.68016114       2.74200150       0.00000000
Si      -2.71202438      -0.07108956      -2.73324602       0.00000000
