10
Lattice="16.290000149 0.0 0.0 0.0 16.290000149 0.0 0.0 0.0 29.1751946751" Properties=species:S:1:pos:R:3:initial_magmoms:R:1 pbc="T T T"
Si       1.26864452      -1.35513253      -1.43267711       0.00000000
Si       1.35053272       1.42369714       1.30558996       0.00000000
Si      -1.30736813      -1.34783461       1.44490152       0.00000000
Si      -1.39258113       1.35956341      -1.35367068       0.00000000
Si       2.64189805      -2.69092883      -0.07690581       0.00000000
Si      -0.08407057       2.66880701       2.67510277       0.00000000
Si      -2.73849352      -2.61105896       0.03673157       0.00000000
Si       2.60265544       0.01897785      -2.79784282       0.00000000
Si      -0.04355734       2.71179632      -2.75087076       0.00000000
Si       2.77653490       0.20681784       2.68738553       0.00000000
