10
Lattice="16.290000149 0.0 0.0 0.0 16.290000149 0.0 0.0 0.0 29.1751946751" Properties=species:S:1:pos:R:3:initial_magmoms:R:1 pbc="T T T"
Si       1.36073629      -1.35234857       1.35259120       0.00000000
Si      -1.36159966       1.36371573       1.34532658       0.00000000
Si       1.34915410       1.38756429      -1.33566959       0.00000000
Si      -1.34716672      -1.38777932      -1.33914144       0.00000000
Si      -2.78181075      -0.04123488      -2.59991830       0.00000000
Si       0.00164529      -2.71671753       2.69392078       0.00000000
Si       2.79091686       0.05485332      -2.61864877       0.00000000
Si      -0.00169416       2.70762446       2.70906270       0.00000000
Si      -2.72911259       0.01591044       2.69141171       0.00000000
Si      -0.02906136       2.72731907      -2.69374572       0.00000000
