10
Lattice="16.290000149 0.0 0.0 0.0 16.290000149 0.0 0.0 0.0 29.1751946751" Properties=species:S:1:pos:R:3:initial_magmoms:R:1 pbc="T T T"
Si       1.33984600       1.33190299      -1.38305010       0.00000000
Si      -1.41295226       1.41277616       1.25339554       0.00000000
Si       1.34147500      -1.36674730       1.38342938       0.00000000
Si      -1.37586076      -1.36951660      -1.35997252       0.00000000
H        0.16609936       1.15549858       2.78042523       0.00000000
Si      -2.66869950       0.06009381       2.66127373       0.00000000
Si       2.69719397       2.66244414       0.00183804       0.00000000
Si      -0.10878299      -2.76100842       2.60044345       0.00000000
Si       2.68202798      -2.69575067      -0.02999210       0.00000000
Si      -0.06699263       2.67267589      -2.71230115       0.00000000
