10
Lattice="16.290000149 0.0 0.0 0.0 16.290000149 0.0 0.0 0.0 29.1751946751" Properties=species:S:1:pos:R:3:initial_magmoms:R:1 pbc="T T T"
Si      -1.32066289      -1.34097652      -1.39416877       0.00000000
Si       1.35591445       1.31427721      -1.39888056       0.00000000
Si      -1.37855755       1.35980776       1.33543619       0.00000000
Si       1.35327547      -1.36648666       1.35626727       0.00000000
Si       2.69939963       2.68348430      -0.03509776       0.00000000
Si      -2.69486450      -2.70192458      -0.03308467       0.00000000
Si      -0.01814706       2.71370225       2.68925274       0.00000000
Si       0.09747936      -2.72331335      -2.67849877       0.00000000
Si       2.70063767      -0.00995319       2.71869052       0.00000000
Si      -0.01884753       2.66571191      -2.75892311       0.00000000
