10
Lattice="16.290000149 0.0 0.0 0.0 16.290000149 0.0 0.0 0.0 29.1751946751" Properties=species:S:1:pos:R:3:initial_magmoms:R:1 pbc="T T T"
Si      -2.19849353      -0.18184527      -0.65492477       0.00000000
Si       1.32146599      -0.27051174      -1.90846618       0.00000000
Si       0.51519243       0.90702721       2.09460393       0.00000000
Si       0.79016763      -2.26167104      -0.21309562       0.00000000
Si       0.77560437       2.11789550      -1.17196757       0.00000000
H        2.07236984      -2.22076685       0.60687322       0.00000000
H       -2.27088629      -1.25260327      -1.72054876       0.00000000
H        1.96995460       2.47950092      -0.27824383       0.00000000
H        3.37433181       0.45286200       0.17545962       0.00000000
Si      -2.64161412       1.95383891      -1.54363037       0.00000000
