10
Lattice="16.290000149 0.0 0.0 0.0 16.290000149 0.0 0.0 0.0 29.1751946751" Properties=species:S:1:pos:R:3:initial_magmoms:R:1 pbc="T T T"
Si      -0.84362653      -0.93644695      -0.80899897       0.00000000
H        1.44656830       0.91694782       0.55211138       0.00000000
H        0.80646904      -0.75002419       1.65154942       0.00000000
Si       2.09424242       1.74659753      -0.52115650       0.00000000
Si      -1.09382464       2.74952397      -0.06307677       0.00000000
Si      -0.80493778       1.86657338       2.17786993       0.00000000
Si      -2.13972410       0.35398170      -2.23782496       0.00000000
Si       0.58578841      -2.38140254      -1.92920975       0.00000000
Si      -2.67778280      -1.76063951       0.35237800       0.00000000
Si       1.99027964      -1.26143245       2.45351717       0.00000000
