10
Lattice="16.290000149 0.0 0.0 0.0 16.290000149 0.0 0.0 0.0 29.1751946751" Properties=species:S:1:pos:R:3:initial_magmoms:R:1 pbc="T T T"
Si       1.36041049       1.35389449       1.35381656       0.00000000
Si      -1.33086369      -1.35711991       1.38342938       0.00000000
Si       1.37855755      -1.35980776      -1.33543619       0.00000000
Si      -1.37020241       1.34837218      -1.36332767       0.00000000
Si      -2.66580444      -2.73411362       0.03795693       0.00000000
Si      -0.00804726       2.70814736       2.70491982       0.00000000
Si       2.71538012       2.69814530      -0.02164799       0.00000000
Si      -0.02463048       2.67763619      -2.74404084       0.00000000
Si      -2.71803539       0.00544086       2.70634941       0.00000000
Si       2.70951572      -0.00614133       2.71927402       0.00000000
