10
Lattice="16.290000149 0.0 0.0 0.0 16.290000149 0.0 0.0 0.0 29.1751946751" Properties=species:S:1:pos:R:3:initial_magmoms:R:1 pbc="T T T"
Si      -1.30111489      -1.31839858      -1.44393873       0.00000000
Si       1.25577982      -1.39709557       1.42439135       0.00000000
Si      -1.31413060       1.39460320       1.37400579       0.00000000
Si       1.37717290       1.35690814      -1.36802488       0.00000000
Si       2.63335997       0.04173335       2.67136835       0.00000000
Si      -2.64787436      -2.67530672      -0.10491400       0.00000000
Si       2.70027929      -2.67866246       0.02646190       0.00000000
Si      -2.66230730       2.72587088      -0.03363900       0.00000000
Si      -2.67516011       0.02852053      -2.77800369       0.00000000
Si       0.08219934       2.76742668       2.69129501       0.00000000
