10
Lattice="16.290000149 0.0 0.0 0.0 16.290000149 0.0 0.0 0.0 29.1751946751" Properties=species:S:1:pos:R:3:initial_magmoms:R:1 pbc="T T T"
Si      -1.35601219      -1.34047153       1.31493186       0.00000000
Si      -1.40714650       1.36513459      -1.25098567       0.00000000
Si       1.33682257      -1.15377184      -1.55836968       0.00000000
Si       1.42219846       1.46005642       1.22387608       0.00000000
Si       0.42344226       2.38653389      -2.19695051       0.00000000
Si       2.16386588       0.84214414      -2.65736017       0.00000000
Si       0.07749153      -2.65979864       2.59756094       0.00000000
Si      -2.69218316       0.10122606       2.60325011       0.00000000
Si       2.76358224      -2.52035624      -0.22308813       0.00000000
Si      -2.66118329      -2.63624330      -0.15942202       0.00000000
