10
Lattice="16.290000149 0.0 0.0 0.0 16.290000149 0.0 0.0 0.0 29.1751946751" Properties=species:S:1:pos:R:3:initial_magmoms:R:1 pbc="T T T"
H       -0.67828303       1.24188445      -0.52702072       0.00000000
Si       2.31291938       0.05698242      -0.36045953       0.00000000
Si      -0.73878409      -1.79123213      -1.33727422       0.00000000
Si      -0.73710622      -0.61793183       2.15487988       0.00000000
H        1.44301708       1.62139258      -1.83599500       0.00000000
Si       2.38772306      -2.01363950       0.92727521       0.00000000
Si      -2.24692533      -0.16055750      -2.56633765       0.00000000
Si      -2.09795491       2.74519083       0.21788035       0.00000000
Si       1.33789771      -1.34690934       3.00335289       0.00000000
H       -1.88004847      -1.84467962      -2.49249523       0.00000000
