10
Lattice="16.290000149 0.0 0.0 0.0 16.290000149 0.0 0.0 0.0 29.1751946751" Properties=species:S:1:pos:R:3:initial_magmoms:R:1 pbc="T T T"
Si       1.34589610      -1.34446258       1.36598261       0.00000000
Si      -1.35399223       1.32970384       1.40061357       0.00000000
Si      -1.42219846      -1.46005642      -1.22387608       0.00000000
Si       1.45960030       1.43560171      -1.21685652       0.00000000
Si      -0.99875620       0.92647747      -3.42082659       0.00000000
Si       0.04248432       2.77985920      -2.46961604       0.00000000
Si      -2.82934497      -0.09492183      -2.47486174       0.00000000
Si       2.68850162      -2.64763001      -0.05852544       0.00000000
Si      -0.08537589      -2.61382826      -2.78224576       0.00000000
Si      -0.00917127      -2.71559189       2.71192187       0.00000000
