10
Lattice="16.290000149 0.0 0.0 0.0 16.290000149 0.0 0.0 0.0 29.1751946751" Properties=species:S:1:pos:R:3:initial_magmoms:R:1 pbc="T T T"
Si       1.29577177       1.24463746      -1.49940078       0.00000000
Si       1.44375013      -1.35216775       1.28490475       0.00000000
Si      -1.49757229       1.33203331       1.25613801       0.00000000
Si      -1.43971021      -1.40594104      -1.31574293       0.00000000
Si       2.50374044      -2.81357625      -0.19564886       0.00000000
Si      -2.81619242      -0.15289794       2.52403362       0.00000000
Si      -0.12813714       2.61698852      -2.75259209       0.00000000
Si       0.12720861      -2.70984152       2.66944279       0.00000000
Si       2.47870271      -0.20795814      -2.91177195       0.00000000
Si       3.15491691       2.17093574      -0.39383595       0.00000000
