10
Lattice="16.290000149 0.0 0.0 0.0 16.290000149 0.0 0.0 0.0 29.1751946751" Properties=species:S:1:pos:R:3:initial_magmoms:R:1 pbc="T T T"
Si      -1.34811154      -1.36117612      -1.35110327       0.00000000
Si       1.34307793      -1.38272779       1.34401369       0.00000000
Si      -1.38766366       1.35213517       1.33301464       0.00000000
Si       1.34840476       1.34744365      -1.37820702       0.00000000
Si       2.71016732      -0.02298519       2.67189350       0.00000000
Si      -0.03632670       2.73823500       2.65532199       0.00000000
Si      -2.69197465      -0.00353493      -2.71405166       0.00000000
Si       2.71443530       2.70278795      -0.03209271       0.00000000
Si       0.01034415      -2.71718831      -2.70491982       0.00000000
Si      -0.03178179      -2.72013680       2.70570755       0.00000000
