10
Lattice="16.290000149 0.0 0.0 0.0 16.290000149 0.0 0.0 0.0 29.1751946751" Properties=species:S:1:pos:R:3:initial_magmoms:R:1 pbc="T T T"
Si      -1.42137582       1.21969747      -1.37829455       0.00000000
Si      -1.31862013      -1.48493125       1.26789561       0.00000000
Si       1.49757229      -1.33203331      -1.25613801       0.00000000
Si       0.68325148       1.86248459       1.30421873       0.00000000
Si       0.24658173      -2.55883322       2.63291544       0.00000000
Si       0.02888217       2.61395858      -2.59530862       0.00000000
Si      -2.75794590       2.53066781       0.03979497       0.00000000
Si       0.05786208      -2.73797435      -2.57188094       0.00000000
Si      -0.98689708       3.48654873       1.23912887       0.00000000
Si      -2.71482626      -0.18096561      -2.70305261       0.00000000
