10
Lattice="16.290000149 0.0 0.0 0.0 16.290000149 0.0 0.0 0.0 29.1751946751" Properties=species:S:1:pos:R:3:initial_magmoms:R:1 pbc="T T T"
Si       2.27383967      -0.47275209       0.12396540       0.00000000
Si      -0.28714383       0.74793907       2.19995555       0.00000000
Si      -0.57966337       1.74316197      -1.51250044       0.00000000
Si      -1.53424108      -1.83218519      -0.43899915       0.00000000
H       -1.33149574       1.86364281       2.21101295       0.00000000
Si       2.55231722      -1.34135119      -2.00360649       0.00000000
Si      -1.12946716      -1.18275175       3.20947564       0.00000000
Si      -2.69363297      -1.96136489       1.61540135       0.00000000
Si      -3.04945545      -0.82546318      -1.94939898       0.00000000
Si      -1.75260854       0.61530654      -3.22447169       0.00000000
