10
Lattice="16.290000149 0.0 0.0 0.0 16.290000149 0.0 0.0 0.0 29.1751946751" Properties=species:S:1:pos:R:3:initial_magmoms:R:1 pbc="T T T"
Si       1.44058904      -1.34286616       1.29517442       0.00000000
Si      -1.25770204      -1.36834372      -1.45429593       0.00000000
Si       1.37847610       1.32778162      -1.38745556       0.00000000
Si      -1.44449947       1.28156689       1.39792945       0.00000000
Si       0.09316251      -2.75615400       2.59869294       0.00000000
Si      -0.06691932       2.72039582       2.64490645       0.00000000
Si      -2.70027929       2.67866246      -0.02646190       0.00000000
Si      -2.59310738      -2.81632926      -0.19669916       0.00000000
Si      -2.72070695      -0.31004757       2.69041975       0.00000000
Si      -2.64468152      -0.02544498      -2.80195652       0.00000000
