10
Lattice="16.290000149 0.0 0.0 0.0 16.290000149 0.0 0.0 0.0 29.1751946751" Properties=species:S:1:pos:R:3:initial_magmoms:R:1 pbc="T T T"
H        0.91002457      -0.88635520       0.81287927       0.00000000
Si       1.34524450       1.30924360      -1.39264874       0.00000000
Si      -1.14978079       1.42053688       1.46704549       0.00000000
Si      -1.28441764      -1.47720979      -1.29724586       0.00000000
H       -1.21127554      -1.26586333       2.12185356       0.00000000
Si      -0.53299251      -2.50774778       2.64887427       0.00000000
Si      -2.57578297       2.63741618       0.08524992       0.00000000
Si      -2.65767117      -0.14141349      -2.65301715       0.00000000
Si      -0.01268991       2.66291003      -2.69596304       0.00000000
Si       1.77992687      -2.45076536       2.28841474       0.00000000
