10
Lattice="16.290000149 0.0 0.0 0.0 16.290000149 0.0 0.0 0.0 29.1751946751" Properties=species:S:1:pos:R:3:initial_magmoms:R:1 pbc="T T T"
Si      -1.56520186       1.07390197      -1.36501983       0.00000000
Si       1.37819917      -1.48304161      -1.21961066       0.00000000
Si      -0.85822237      -1.48322080       1.63121431       0.00000000
Si       0.43354206       1.81612325       1.48361700       0.00000000
H        0.33612786      -1.12161538       2.52493805       0.00000000
Si      -1.88242518       1.99650242       2.07266418       0.00000000
Si      -0.24658173       2.55883322      -2.63291544       0.00000000
Si      -3.05255055       2.15655167       0.05627895       0.00000000
Si       2.69474069      -0.12536784      -2.60414870       0.00000000
Si      -0.12981501      -2.82199818      -2.52056177       0.00000000
