10
Lattice="16.290000149 0.0 0.0 0.0 16.290000149 0.0 0.0 0.0 29.1751946751" Properties=species:S:1:pos:R:3:initial_magmoms:R:1 pbc="T T T"
Si      -1.56903652       1.28251171      -1.12295324       0.00000000
Si      -1.38811978      -1.43806492       1.17934889       0.00000000
Si       1.56714688       1.11806416       1.46961291       0.00000000
Si       1.07447212      -1.11044044      -1.86549112       0.00000000
Si       2.09772848      -2.44799606      -0.24749318       0.00000000
Si       0.31144851      -3.03702618       1.19396567       0.00000000
Si       0.05264928       2.30782061      -2.51507683       0.00000000
Si       1.83798443       0.76346344      -3.14356888       0.00000000
Si      -2.53596206       2.72504009       0.40337624       0.00000000
Si      -3.46315629      -0.22356396      -1.43781194       0.00000000
