10
Lattice="16.290000149 0.0 0.0 0.0 16.290000149 0.0 0.0 0.0 29.1751946751" Properties=species:S:1:pos:R:3:initial_magmoms:R:1 pbc="T T T"
Si       1.34711785       1.33278265       1.38843876       0.00000000
Si       1.32885676      -1.44102970      -1.31419373       0.00000000
Si      -1.34084620      -1.41877756       1.35955532       0.00000000
Si      -1.42675966       1.36658440      -1.33528156       0.00000000
H        0.49427118       1.65918539      -3.21669067       0.00000000
Si      -2.76358224       2.52035624       0.22308813       0.00000000
Si       2.64722276       2.68708439      -0.04748263       0.00000000
Si      -2.73416249      -0.08267175      -2.70221528       0.00000000
Si      -0.06574644      -2.76288177      -2.68018801       0.00000000
Si       2.69610905      -0.05141124       2.75036602       0.00000000
