10
Lattice="16.290000149 0.0 0.0 0.0 16.290000149 0.0 0.0 0.0 29.1751946751" Properties=species:S:1:pos:R:3:initial_magmoms:R:1 pbc="T T T"
Si      -1.49061646       1.26923536       1.27746507       0.00000000
Si       1.30736813       1.34783461      -1.44490152       0.00000000
Si      -1.43112538      -1.26322435      -1.40816995       0.00000000
Si       1.26052021      -1.33048576       1.54351367       0.00000000
Si       2.45376598      -2.53418971      -0.14202485       0.00000000
H        1.47101796       1.34661286       2.92536759       0.00000000
Si      -2.87583663      -0.56078326       2.03073943       0.00000000
Si      -2.76925116      -2.29153061       0.22467817       0.00000000
Si       2.60273640       0.37155861       2.64219316       0.00000000
Si       2.65790086       2.77153176      -0.13931155       0.00000000
