10
Lattice="16.290000149 0.0 0.0 0.0 16.290000149 0.0 0.0 0.0 29.1751946751" Properties=species:S:1:pos:R:3:initial_magmoms:R:1 pbc="T T T"
H        0.84362653       0.93644695       0.80899897       0.00000000
Si       1.42941493      -1.44495559      -1.12021077       0.00000000
Si      -1.29609757       1.29042865      -1.42882598       0.00000000
Si      -1.83415628      -0.82419256       1.16137697       0.00000000
H        1.65009557       0.18642276       2.46054839       0.00000000
H        2.29019483       1.85339477       1.36111036       0.00000000
Si      -2.37718343       2.71111214       0.06879511       0.00000000
Si       2.77698891      -0.05046642      -2.46413694       0.00000000
Si       0.06729399      -2.75004525      -2.51116736       0.00000000
Si      -1.20831076      -1.22531752       3.31033429       0.00000000
