10
Lattice="16.290000149 0.0 0.0 0.0 16.290000149 0.0 0.0 0.0 29.1751946751" Properties=species:S:1:pos:R:3:initial_magmoms:R:1 pbc="T T T"
Si      -0.96692554       1.44252838       1.52632948       0.00000000
Si       1.56903652      -1.28251171       1.12295324       0.00000000
Si       1.62168580       1.02530890      -1.39212359       0.00000000
Si      -1.89411977      -1.50607567      -0.31485870       0.00000000
H       -0.37535418      -2.35077734      -2.02391243       0.00000000
H        0.76869253      -0.70625296      -3.14511516       0.00000000
H       -2.48808575      -1.60671529      -1.71701856       0.00000000
Si       0.18091674      -2.72057663       2.30230214       0.00000000
Si      -2.66162312       2.37506573       0.22467817       0.00000000
H       -2.13620546       2.63935469      -1.16196048       0.00000000
