10
Lattice="16.290000149 0.0 0.0 0.0 16.290000149 0.0 0.0 0.0 29.1751946751" Properties=species:S:1:pos:R:3:initial_magmoms:R:1 pbc="T T T"
Si      -0.11681559       2.30559540       0.23427681       0.00000000
Si       1.60187716       0.06962346      -1.78692232       0.00000000
Si       0.28888686      -0.88295059       2.24094670       0.00000000
Si      -2.12698532      -0.97485877      -0.67712709       0.00000000
H        1.09382464      -2.74952397       0.06307677       0.00000000
H        2.54039294      -1.83257615       0.61518815       0.00000000
Si      -1.86846302       1.98973229       1.72130731       0.00000000
Si      -1.90902512      -0.16086375       2.69257872       0.00000000
Si       3.18806706      -1.00292644      -0.45807973       0.00000000
Si      -1.04589946      -2.39554226      -2.17474819       0.00000000
