10
Lattice="16.290000149 0.0 0.0 0.0 16.290000149 0.0 0.0 0.0 29.1751946751" Properties=species:S:1:pos:R:3:initial_magmoms:R:1 pbc="T T T"
Si       1.41822370      -1.17299404      -1.46847507       0.00000000
Si      -1.31914304      -1.42835608       1.34319679       0.00000000
Si      -1.84360936       1.17204270      -0.93103881       0.00000000
Si       1.44567235       1.44090101       1.27580209       0.00000000
H        0.79692310       2.60208317      -1.44627275       0.00000000
Si      -0.48527910       2.56117898      -2.26624160       0.00000000
Si      -2.77565313       1.98829226       1.06291069       0.00000000
Si      -2.48922100       0.16272358       2.63177761       0.00000000
Si      -0.10497276      -2.50108517      -2.65322138       0.00000000
Si       2.79520113      -2.49355919      -0.02873757       0.00000000
