10
Lattice="16.290000149 0.0 0.0 0.0 16.290000149 0.0 0.0 0.0 29.1751946751" Properties=species:S:1:pos:R:3:initial_magmoms:R:1 pbc="T T T"
Si       1.29916009       1.28323890       1.50455312       0.00000000
Si      -1.33560082      -1.36587839       1.40639318       0.00000000
Si       1.48273210      -1.30117451      -1.33403578       0.00000000
Si      -1.35488818       1.38542281      -1.40195563       0.00000000
Si      -0.00535941      -2.54903739      -2.70649528       0.00000000
Si      -2.60741000       2.72784751       0.08380225       0.00000000
Si       2.69910641      -2.71594474       0.11380076       0.00000000
Si       2.28786536       3.06894383       0.35022779       0.00000000
Si       2.37048824       2.37459886      -1.87905759       0.00000000
Si       3.09964494       0.18286731      -2.27767827       0.00000000
