10
Lattice="16.290000149 0.0 0.0 0.0 16.290000149 0.0 0.0 0.0 29.1751946751" Properties=species:S:1:pos:R:3:initial_magmoms:R:1 pbc="T T T"
Si      -1.36809937       1.35659863      -1.32767558       0.00000000
Si       1.34907265       1.36021501       1.34876925       0.00000000
Si      -1.37609776      -1.32916627       1.35559625       0.00000000
Si       1.37466424      -1.36461331      -1.33181846       0.00000000
Si       2.66895362      -0.07980471       2.62550494       0.00000000
Si      -0.00006516       2.70119153      -2.66999712       0.00000000
Si       0.00863370      -2.71995761      -2.67793277       0.00000000
Si      -2.70892928      -0.00566892      -2.69228696       0.00000000
Si      -2.68615586       2.71911053       0.06319347       0.00000000
Si       2.73456975      -0.00180819      -2.67536535       0.00000000
