10
Lattice="16.290000149 0.0 0.0 0.0 16.290000149 0.0 0.0 0.0 29.1751946751" Properties=species:S:1:pos:R:3:initial_magmoms:R:1 pbc="T T T"
Si      -1.34366437       1.36568845       1.34958616       0.00000000
Si       1.34706587       1.35470899      -1.35725923       0.00000000
Si       1.34291609      -1.35539317       1.37208023       0.00000000
Si      -1.37147140      -1.34703640      -1.35565460       0.00000000
Si      -2.67906971      -0.08229708       2.60718292       0.00000000
Si       2.66943581      -2.70405857      -0.02546994       0.00000000
Si       2.66177136       2.72117936       0.03664404       0.00000000
Si      -0.02143764       2.71112843      -2.69853046       0.00000000
Si       2.69028049       0.02502144       2.72350442       0.00000000
Si      -0.02824686      -2.67744071      -2.74322685       0.00000000
