10
Lattice="16.290000149 0.0 0.0 0.0 16.290000149 0.0 0.0 0.0 29.1751946751" Properties=species:S:1:pos:R:3:initial_magmoms:R:1 pbc="T T T"
Si       1.27859722      -1.37184770       1.38886180       0.00000000
Si      -1.34666157      -1.21362016      -1.48235955       0.00000000
Si      -1.43129245       1.30797135       1.35199603       0.00000000
Si       1.33570997       1.40698197      -1.35257720       0.00000000
Si      -1.63309369       0.61194852      -3.05122647       0.00000000
Si      -0.29861688       2.58988033      -2.56595545       0.00000000
Si       2.60751915      -2.68674393      -0.02998627       0.00000000
Si      -2.82837245      -2.52231267      -0.11464976       0.00000000
Si      -0.06906797       2.70281891       2.67113787       0.00000000
Si       2.58072210      -0.04507443       2.81383374       0.00000000
