10
Lattice="16.290000149 0.0 0.0 0.0 16.290000149 0.0 0.0 0.0 29.1751946751" Properties=species:S:1:pos:R:3:initial_magmoms:R:1 pbc="T T T"
Si      -1.40424688       1.31707909       1.31431334       0.00000000
Si       1.36844146      -1.23992965       1.44548502       0.00000000
Si       1.32965497       1.39794265      -1.34389699       0.00000000
Si      -1.39274614      -1.37780821      -1.30853666       0.00000000
Si       2.56443698      -2.64041354      -0.03328890       0.00000000
Si      -0.11079644       2.71774217       2.63907141       0.00000000
Si       2.62824491       0.04079016      -2.76198650       0.00000000
Si       0.00134393      -2.66590739       2.74792406       0.00000000
Si      -2.73217512      -0.01034415      -2.68443884       0.00000000
Si      -2.72530073       2.69594615      -0.01782604       0.00000000
