10
Lattice="16.290000149 0.0 0.0 0.0 16.290000149 0.0 0.0 0.0 29.1751946751" Properties=species:S:1:pos:R:3:initial_magmoms:R:1 pbc="T T T"
Si       1.32133078      -1.48878358      -1.20622217       0.00000000
Si       1.36203949       1.28238654       1.40847629       0.00000000
Si      -1.34957764      -1.39607719       1.30936815       0.00000000
Si      -1.38285811       1.32421111      -1.36548372       0.00000000
Si       2.69518052       2.62186764       0.07863882       0.00000000
Si      -2.69832449       2.64747552       0.03427502       0.00000000
Si      -2.67349853      -0.04376282       2.69308928       0.00000000
Si       0.03210759       2.70178638       2.69489814       0.00000000
Si       0.03629412      -2.75269211       2.64801361       0.00000000
Si      -2.68765454      -2.72058452      -0.09493025       0.00000000
