10
Lattice="16.290000149 0.0 0.0 0.0 16.290000149 0.0 0.0 0.0 29.1751946751" Properties=species:S:1:pos:R:3:initial_magmoms:R:1 pbc="T T T"
Si      -0.65384803       0.42448482      -2.13153681       0.00000000
Si      -1.90734725      -0.79022791       1.12296783       0.00000000
Si       0.85766851       1.93590362       1.04174992       0.00000000
Si       1.70530238      -1.66874762      -0.12730830       0.00000000
H       -1.21292083      -2.61457760      -0.80059360       0.00000000
Si       2.17306973       0.67274443       2.51434453       0.00000000
Si      -0.65741554      -2.16033095       2.53617050       0.00000000
Si       3.43028307      -0.72834220       1.14908255       0.00000000
Si       0.84056401      -3.39620113       1.25655521       0.00000000
Si      -2.35341632       2.02344608      -2.14615358       0.00000000
