10
Lattice="16.290000149 0.0 0.0 0.0 16.290000149 0.0 0.0 0.0 29.1751946751" Properties=species:S:1:pos:R:3:initial_magmoms:R:1 pbc="T T T"
H       -1.18188838      -0.53864514      -1.05030701       0.00000000
Si      -1.53797149       1.27132048       1.19819607       0.00000000
Si       1.14007195      -1.50107464       1.38378328       0.00000000
Si       1.67038476       0.78475447      -1.44650615       0.00000000
Si      -2.47925657      -1.08580996      -1.97381862       0.00000000
Si       3.08288253      -1.16615224      -1.44962790       0.00000000
Si      -0.14336829       2.59317254       2.56419035       0.00000000
Si       2.64625188      -0.11694591       2.55273034       0.00000000
Si       2.77621024       2.48958443      -0.19308144       0.00000000
Si       2.40196052      -2.92980540       0.05709586       0.00000000
