10
Lattice="16.290000149 0.0 0.0 0.0 16.290000149 0.0 0.0 0.0 29.1751946751" Properties=species:S:1:pos:R:3:initial_magmoms:R:1 pbc="T T T"
Si       1.30101715      -1.34868169       1.41826456       0.00000000
Si      -1.37715661       1.34962651       1.35019883       0.00000000
Si      -1.42941493      -1.40299255      -1.24235856       0.00000000
Si       1.42762303       1.38956959      -1.28129286       0.00000000
Si      -2.63295272      -0.00720018      -2.68456721       0.00000000
Si       2.71415837      -0.05849739      -2.61119743       0.00000000
Si       0.05160672       2.65274507      -2.69772814       0.00000000
Si      -0.11394855      -2.72625696      -2.64211730       0.00000000
Si       2.63094905      -2.76808153       0.13184270       0.00000000
Si      -0.02979441       2.70615998       2.71262208       0.00000000
