10
Lattice="16.290000149 0.0 0.0 0.0 16.290000149 0.0 0.0 0.0 29.1751946751" Properties=species:S:1:pos:R:3:initial_magmoms:R:1 pbc="T T T"
Si       1.77104882       0.95588092       1.19933390       0.00000000
Si       1.33657008      -1.31097034      -1.41808951       0.00000000
Si      -1.22334643       1.51013188      -1.35725923       0.00000000
Si      -1.31259934      -1.29314908       1.49271966       0.00000000
H        1.61145243       2.60553665      -1.23810774       0.00000000
H       -3.15328791      -0.78885955      -1.58114968       0.00000000
Si      -2.31550949       0.46504692       2.76394124       0.00000000
Si      -2.50561379       0.04079016      -2.65441756       0.00000000
Si       3.44119737      -0.66818323       1.26442376       0.00000000
Si       2.75794590      -2.53066781      -0.03979497       0.00000000
