10
Lattice="16.290000149 0.0 0.0 0.0 16.290000149 0.0 0.0 0.0 29.1751946751" Properties=species:S:1:pos:R:3:initial_magmoms:R:1 pbc="T T T"
Si      -1.34555401      -1.33087672       1.37047559       0.00000000
Si       1.37306782      -1.36055710      -1.31956488       0.00000000
Si       1.36212094       1.30508965       1.39095658       0.00000000
Si      -1.35843940       1.33260346      -1.37794444       0.00000000
Si      -0.06729399       2.75004525       2.51116736       0.00000000
Si      -0.00167787      -2.72337851      -2.65284210       0.00000000
Si       2.72510525       0.01558953      -2.66261579       0.00000000
Si      -2.78296734       0.03865617       2.60417788       0.00000000
Si       2.70969491       2.69957882       0.04703041       0.00000000
Si      -2.72746731      -2.68227884       0.02990457       0.00000000
