10
Lattice="16.290000149 0.0 0.0 0.0 16.290000149 0.0 0.0 0.0 29.1751946751" Properties=species:S:1:pos:R:3:initial_magmoms:R:1 pbc="T T T"
Si      -0.08262288       0.69434497       2.22928538       0.00000000
Si       0.72915670      -2.19173155      -0.39862068       0.00000000
Si       1.93691360       1.03097782      -0.90192197       0.00000000
Si      -2.20294559       0.38299419      -0.80567300       0.00000000
H        2.45120519      -0.24795009       1.49096915       0.00000000
Si       2.62860329      -1.63757833       0.88520458       0.00000000
Si      -2.15407559       2.67696830      -0.13770692       0.00000000
Si       1.45637488      -1.84711986      -2.66150713       0.00000000
Si       1.01027323       2.07265817      -2.73733347       0.00000000
Si       0.24166215       0.02471193      -3.61798672       0.00000000
