10
Lattice="16.290000149 0.0 0.0 0.0 16.290000149 0.0 0.0 0.0 29.1751946751" Properties=species:S:1:pos:R:3:initial_magmoms:R:1 pbc="T T T"
Si       1.72498070       0.94040542       1.27639084       0.00000000
Si      -0.86473837      -1.72745352       1.38386351       0.00000000
Si       0.72757657      -0.63609193      -2.18003823       0.00000000
Si      -1.70530238       1.66874762       0.12730830       0.00000000
H       -2.91822321      -0.94582999      -0.67328530       0.00000000
Si       0.46776735       2.34149204       2.64165283       0.00000000
Si      -2.36271791      -0.49158333       2.66347879       0.00000000
Si      -0.84980044      -2.32198802      -2.62338449       0.00000000
Si       2.97386985      -1.13966470      -1.90004389       0.00000000
Si      -2.35915040       2.09323244      -2.00422851       0.00000000
