10
Lattice="16.290000149 0.0 0.0 0.0 16.290000149 0.0 0.0 0.0 29.1751946751" Properties=species:S:1:pos:R:3:initial_magmoms:R:1 pbc="T T T"
Si      -1.39810734       1.17195148      -1.46392374       0.00000000
Si      -1.45937404      -1.17913537       1.41559212       0.00000000
Si       1.46020450      -1.28272348      -1.34167968       0.00000000
Si       1.22017298       1.48926439       1.39848086       0.00000000
H       -2.29395961       1.92107972      -0.48690482       0.00000000
Si       2.64974592       0.41137137      -2.52762217       0.00000000
Si      -0.07001621      -2.53863362       2.77184480       0.00000000
Si      -2.85397724      -2.50098743       0.04959783       0.00000000
Si       2.60718015       0.15019380       2.77007095       0.00000000
Si      -0.25000442       2.81028567      -2.65047891       0.00000000
