10
Lattice="16.290000149 0.0 0.0 0.0 16.290000149 0.0 0.0 0.0 29.1751946751" Properties=species:S:1:pos:R:3:initial_magmoms:R:1 pbc="T T T"
H        1.36806679       0.58178107       0.26736148       0.00000000
Si      -0.48721761       0.39715020      -2.21258841       0.00000000
Si      -1.38724012       1.34078104       1.31921478       0.00000000
Si      -0.49034529      -2.20804436       0.59972530       0.00000000
H        2.24701004      -1.21858975      -0.16851592       0.00000000
H        2.88236892      -0.26805195       1.45228284       0.00000000
Si       0.56301499      -2.12740886       2.71022971       0.00000000
Si       1.32747211       1.70206067      -2.85913990       0.00000000
Si      -2.80631253      -2.02766519       1.18877248       0.00000000
Si       0.13595634       2.66887217       2.50396108       0.00000000
