10
Lattice="16.290000149 0.0 0.0 0.0 16.290000149 0.0 0.0 0.0 29.1751946751" Properties=species:S:1:pos:R:3:initial_magmoms:R:1 pbc="T T T"
Si      -1.31719654       1.43386862      -1.27717332       0.00000000
Si       1.31442855       1.38375080       1.36391118       0.00000000
Si      -1.39726189      -1.33516099       1.33494021       0.00000000
Si       1.27929916      -1.34596126      -1.45698005       0.00000000
Si      -2.64168759       0.09713385      -2.61513608       0.00000000
Si       2.64616049      -2.69299766      -0.08440384       0.00000000
Si      -0.02875838      -2.69158043       2.67621143       0.00000000
Si       2.66090294       0.02321325       2.71927402       0.00000000
Si       2.69149556       0.04538394      -2.71171473       0.00000000
Si       2.63847161       2.76783393       0.00253824       0.00000000
