10
Lattice="16.290000149 0.0 0.0 0.0 16.290000149 0.0 0.0 0.0 29.1751946751" Properties=species:S:1:pos:R:3:initial_magmoms:R:1 pbc="T T T"
Si      -1.33540534      -1.44798553       1.25759677       0.00000000
Si       1.34366437      -1.36568845      -1.34958616       0.00000000
Si      -1.38697948       1.34289874      -1.34766059       0.00000000
Si       1.25770204       1.36834372       1.45429593       0.00000000
Si      -2.69640227      -0.07846893       2.52000744       0.00000000
Si       2.63617814       2.69612534       0.06684037       0.00000000
Si      -0.02788848       2.70726770      -2.68899017       0.00000000
Si       2.69073024      -0.01097946      -2.70684539       0.00000000
Si       2.68658046      -2.72108162       0.02249408       0.00000000
Si      -0.02780703      -2.71272485      -2.70524075       0.00000000
