10
Lattice="16.290000149 0.0 0.0 0.0 16.290000149 0.0 0.0 0.0 29.1751946751" Properties=species:S:1:pos:R:3:initial_magmoms:R:1 pbc="T T T"
Si       1.35514882      -1.39567671      -1.28928103       0.00000000
Si       1.39312081       1.34317567       1.32910517       0.00000000
Si      -1.32404307      -1.38408312       1.36137293       0.00000000
Si      -1.29464125       1.35221662      -1.43197690       0.00000000
Si      -2.64413874       2.67983534      -0.02549912       0.00000000
Si       2.70124040      -0.06496452      -2.63518236       0.00000000
Si       0.03466512       2.69918786       2.68292173       0.00000000
Si      -2.70326036      -0.03484431       2.70182725       0.00000000
Si      -2.63847161      -2.76783393      -0.00253824       0.00000000
Si      -2.65686573      -0.04263093      -2.75111874       0.00000000
