10
Lattice="16.290000149 0.0 0.0 0.0 16.290000149 0.0 0.0 0.0 29.1751946751" Properties=species:S:1:pos:R:3:initial_magmoms:R:1 pbc="T T T"
Si      -1.38833155      -1.36099693       1.31265036       0.00000000
Si      -1.36994014       1.34151409      -1.35396243       0.00000000
Si       1.35193969      -1.36982611      -1.35084069       0.00000000
Si       1.38163636       1.36428751       1.33356897       0.00000000
Si       2.77568571      -0.08588088       2.53065639       0.00000000
Si       0.00470781       2.69680952      -2.68834831       0.00000000
Si      -0.06845058      -2.80101666       2.58938605       0.00000000
Si      -2.68920209       2.71127504       0.02876674       0.00000000
Si      -2.67913487       0.00628794       2.72487566       0.00000000
Si       2.72629442      -0.02738349      -2.69362902       0.00000000
