10
Lattice="16.290000149 0.0 0.0 0.0 16.290000149 0.0 0.0 0.0 29.1751946751" Properties=species:S:1:pos:R:3:initial_magmoms:R:1 pbc="T T T"
Si      -0.37628271      -0.64633834      -2.22457942       0.00000000
Si      -1.99303265      -0.60163858       1.16934180       0.00000000
Si       0.76999573       2.04340133       1.00724442       0.00000000
Si       1.48530592      -1.87059701       0.35430356       0.00000000
H       -2.24886710       2.08557614      -0.27413013       0.00000000
Si       1.79325209       0.70584571       2.62524237       0.00000000
H        2.75887443       1.96408532      -0.04577588       0.00000000
Si      -2.14141826      -2.13149765      -1.89204055       0.00000000
Si      -1.06639228      -1.64331892       3.00475330       0.00000000
H       -0.45649467       3.30346542      -1.35687995       0.00000000
