10
Lattice="10.86 0.0 0.0 0.0 10.86 0.0 0.0 0.0 10.86" Properties=species:S:1:pos:R:3:initial_magmoms:R:1 pbc="T T T"
Si       1.23441276      -1.37919828      -1.21603764       0.00000000
Si       1.23441276       1.33580172       1.49896236       0.00000000
Si      -1.48058724      -1.37919828       1.49896236       0.00000000
Si       2.37259506      -0.08809632      -2.64610416       0.00000000
Si       2.49128400       2.70115350       0.07411950       0.00000000
Si      -2.40879144       1.88053932      -2.13686790       0.00000000
Si      -0.12308724      -2.73669828      -2.57353764       0.00000000
Si       2.59191276      -2.73669828       0.14146236       0.00000000
Si       2.59191276      -0.02169828       2.85646236       0.00000000
Si      -0.12308724       2.69330172       2.85646236       0.00000000
