10
Lattice="10.86 0.0 0.0 0.0 10.86 0.0 0.0 0.0 10.86" Properties=species:S:1:pos:R:3:initial_magmoms:R:1 pbc="T T T"
Si       0.76439196       1.72654452      -1.61260140       0.00000000
Si      -0.43115286       1.13186178       2.17728882       0.00000000
Si      -1.78679580      -0.54473760      -1.79416974       0.00000000
Si      -0.71579346      -2.47644924      -0.65120904       0.00000000
Si      -1.78679580       2.17026240       0.92083026       0.00000000
Si      -3.14429580       0.81276240      -0.43666974       0.00000000
Si      -0.28686690       0.62295132      -3.29503260       0.00000000
Si      -0.60584682       3.44685540      -0.60573822       0.00000000
Si       2.40879144      -1.88053932       2.13686790       0.00000000
Si      -1.78679580      -3.25973760       0.92083026       0.00000000
