10
Lattice="10.86 0.0 0.0 0.0 10.86 0.0 0.0 0.0 10.86" Properties=species:S:1:pos:R:3:initial_magmoms:R:1 pbc="T T T"
Si      -1.25687124      -1.36535178       1.42484286       0.00000000
Si       1.45812876      -1.36535178      -1.29015714       0.00000000
Si       1.45812876       1.34964822       1.42484286       0.00000000
Si      -2.49128400      -2.70115350      -0.07411950       0.00000000
Si       0.32528958       2.65919046      -2.60002518       0.00000000
Si      -2.61437124      -0.00785178       2.78234286       0.00000000
Si       2.81562876      -0.00785178      -2.64765714       0.00000000
Si       0.10062876       2.70714822       2.78234286       0.00000000
Si       0.10062876      -2.72285178       2.78234286       0.00000000
Si      -0.11868894      -2.78924982      -2.72022366       0.00000000
