10
Lattice="10.86 0.0 0.0 0.0 10.86 0.0 0.0 0.0 10.86" Properties=species:S:1:pos:R:3:initial_magmoms:R:1 pbc="T T T"
Si       1.67922750       0.10744884       1.76854014       0.00000000
Si       1.61399148       1.98558810      -0.35645778       0.00000000
Si       0.49806132      -1.43299872      -2.11942674       0.00000000
Si      -2.21693868      -1.43299872       0.59557326       0.00000000
Si      -2.21693868       1.28200128      -2.11942674       0.00000000
Si       1.85556132      -2.79049872      -0.76192674       0.00000000
Si      -0.85943868      -2.79049872       1.95307326       0.00000000
Si       3.21306132      -1.43299872       0.59557326       0.00000000
Si       0.49806132      -1.43299872       3.31057326       0.00000000
Si      -0.89192094       2.75788614       2.22771180       0.00000000
