10
Lattice="10.86 0.0 0.0 0.0 10.86 0.0 0.0 0.0 10.86" Properties=species:S:1:pos:R:3:initial_magmoms:R:1 pbc="T T T"
Si      -1.67922750      -0.10744884      -1.76854014       0.00000000
Si       1.53383382      -1.54044756      -1.17296688       0.00000000
Si       1.53383382       1.17455244       1.54203312       0.00000000
Si      -1.18116618      -1.54044756       1.54203312       0.00000000
Si      -0.06523602       1.87813926      -2.12499792       0.00000000
Si       2.51299314       2.53477830      -0.00853596       0.00000000
Si      -2.57114844       2.65043730       0.45917166       0.00000000
Si       0.17633382      -2.89794756      -2.53046688       0.00000000
Si       0.17633382       2.53205244       2.89953312       0.00000000
Si      -2.53866618      -2.89794756       0.18453312       0.00000000
