10
Lattice="10.86 0.0 0.0 0.0 10.86 0.0 0.0 0.0 10.86" Properties=species:S:1:pos:R:3:initial_magmoms:R:1 pbc="T T T"
Si      -1.07926680       1.48843902      -1.33065408       0.00000000
Si       1.63573320      -1.22656098      -1.33065408       0.00000000
Si      -1.13248080      -1.44563976       1.75007814       0.00000000
Si       1.63573320       1.48843902       1.38434592       0.00000000
Si      -2.43676680       0.13093902      -2.68815408       0.00000000
Si      -2.49221796      -2.64008772       0.11951430       0.00000000
Si      -2.40133062       0.24858540       2.74438716       0.00000000
Si       0.27823320      -2.58406098      -2.68815408       0.00000000
Si      -2.43676680       2.84593902       0.02684592       0.00000000
Si       0.27823320       2.84593902      -2.68815408       0.00000000
