10
Lattice="10.86 0.0 0.0 0.0 10.86 0.0 0.0 0.0 10.86" Properties=species:S:1:pos:R:3:initial_magmoms:R:1 pbc="T T T"
Si      -1.35951996       1.33396638      -1.29409932       0.00000000
Si       1.35548004       1.33396638       1.42090068       0.00000000
Si      -1.35951996      -1.38103362       1.42090068       0.00000000
Si       2.33463936      -2.73580776      -0.12966840       0.00000000
Si       2.77133082      -0.28812666      -2.52022590       0.00000000
Si      -2.68158378       0.09411276      -2.64905808       0.00000000
Si      -0.00201996       2.69146638      -2.65159932       0.00000000
Si      -2.74950222      -2.62014876       0.33803922       0.00000000
Si       2.71298004       2.69146638       0.06340068       0.00000000
Si      -2.71701996       2.69146638       0.06340068       0.00000000
