10
Lattice="10.86 0.0 0.0 0.0 10.86 0.0 0.0 0.0 10.86" Properties=species:S:1:pos:R:3:initial_magmoms:R:1 pbc="T T T"
Si      -1.34280642       1.36328838       1.36723056       0.00000000
Si       1.37219358       1.36328838      -1.34776944       0.00000000
Si       1.37219358      -1.35171162       1.36723056       0.00000000
Si      -2.63499438       0.02649840      -2.67658818       0.00000000
Si       0.02555358      -2.67157086      -2.67316728       0.00000000
Si      -2.70030642       2.72078838       0.00973056       0.00000000
Si      -2.70030642       0.00578838       2.72473056       0.00000000
Si       0.01469358       2.72078838      -2.70526944       0.00000000
Si       0.01469358      -2.70921162       2.72473056       0.00000000
Si       2.72969358       0.00578838      -2.70526944       0.00000000
