10
Lattice="10.86 0.0 0.0 0.0 10.86 0.0 0.0 0.0 10.86" Properties=species:S:1:pos:R:3:initial_magmoms:R:1 pbc="T T T"
Si      -1.35750000      -1.35750000       1.35750000       0.00000000
Si       1.35750000       1.35750000       1.35750000       0.00000000
Si       1.35750000      -1.35750000      -1.35750000       0.00000000
Si      -1.35750000       1.35750000      -1.35750000       0.00000000
Si       2.52935916       2.54510616      -0.19363380       0.00000000
Si      -2.52522150       2.61028788       0.11115210       0.00000000
Si       2.68461372      -2.63249658       0.10065048       0.00000000
Si       0.00000000      -2.71500000      -2.71500000       0.00000000
Si       0.00000000      -2.71500000       2.71500000       0.00000000
Si       0.00000000       2.71500000       2.71500000       0.00000000
