10
Lattice="10.86 0.0 0.0 0.0 10.86 0.0 0.0 0.0 10.86" Properties=species:S:1:pos:R:3:initial_magmoms:R:1 pbc="T T T"
Si      -1.17185916       1.52739384      -1.16386620       0.00000000
Si       1.54314084      -1.18760616      -1.16386620       0.00000000
Si      -1.17185916      -1.18760616       1.55113380       0.00000000
Si      -2.52935916       0.16989384      -2.52136620       0.00000000
Si       0.18564084      -2.54510616      -2.52136620       0.00000000
Si      -2.52935916      -2.54510616       0.19363380       0.00000000
Si       2.81772474       0.10460352      -2.54638764       0.00000000
Si       0.16189002       2.94906558      -2.45195994       0.00000000
Si      -2.52935916       2.88489384       0.19363380       0.00000000
Si      -2.52935916       0.16989384       2.90863380       0.00000000
