10
Lattice="10.86 0.0 0.0 0.0 10.86 0.0 0.0 0.0 10.86" Properties=species:S:1:pos:R:3:initial_magmoms:R:1 pbc="T T T"
Si       1.46834802       1.20216942       1.47341964       0.00000000
Si       1.46834802      -1.51283058      -1.24158036       0.00000000
Si      -1.24665198      -1.51283058       1.47341964       0.00000000
Si      -2.56670670       2.54594238       0.11406258       0.00000000
Si       0.07605258       2.53936122      -2.57708886       0.00000000
Si       2.82584802       2.55966942       0.11591964       0.00000000
Si       0.11084802       2.55966942       2.83091964       0.00000000
Si       2.82584802      -0.15533058      -2.59908036       0.00000000
Si      -2.60415198      -0.15533058       2.83091964       0.00000000
Si       0.30062652      -2.97504270      -2.48792826       0.00000000
