10
Lattice="16.28999089631971 0.0 0.0 0.0 16.28999089631971 0.0 0.0 0.0 34.31420841018396" Properties=species:S:1:pos:R:3:initial_magmoms:R:1 pbc="T T T"
Si      -0.75984705       0.49632209       2.14885987       0.00000000
Si      -1.86421131      -0.85701853      -1.14067355       0.00000000
Si       1.01055015       1.87072242      -1.05571153       0.00000000
Si       1.58143320      -1.90822267      -0.12078608       0.00000000
Si       2.22495336       0.46159344      -2.53057134       0.00000000
Si      -0.53009289      -2.26598365      -2.54457155       0.00000000
Si       3.52960317      -0.88087051      -1.05035851       0.00000000
Si      -3.11233808      -2.22833746       0.33277938       0.00000000
Si      -3.10709921       1.19709834       2.03678961       0.00000000
Si       2.13560271       3.27962823       0.54243931       0.00000000
