10
Lattice="16.28999089631971 0.0 0.0 0.0 16.28999089631971 0.0 0.0 0.0 34.31420841018396" Properties=species:S:1:pos:R:3:initial_magmoms:R:1 pbc="T T T"
Si      -2.13684075      -0.09547569       0.82573757       0.00000000
Si       1.82045637      -0.31410378       1.41179027       0.00000000
Si       0.48446460       1.95976845      -1.26046452       0.00000000
Si      -0.53273187      -2.17248001      -0.86845879       0.00000000
Si       3.30196671      -0.52007454      -0.46886961       0.00000000
Si      -2.87998403      -1.47170376      -0.98052905       0.00000000
Si       2.36271789       0.61082613      -2.47487935       0.00000000
Si      -2.85045678       2.10680199       1.15127665       0.00000000
Si      -2.13853491      -1.07194716       2.92552810       0.00000000
Si       0.40075029       3.77827002       0.31315164       0.00000000
