10
Lattice="16.28999089631971 0.0 0.0 0.0 16.28999089631971 0.0 0.0 0.0 34.31420841018396" Properties=species:S:1:pos:R:3:initial_magmoms:R:1 pbc="T T T"
Si       0.64633833      -1.35228177      -1.78797714       0.00000000
Si       0.64312920       2.22765750      -0.32660282       0.00000000
Si       0.36474939      -1.07945685       2.05682912       0.00000000
Si      -2.24777565       0.76968621      -0.33916183       0.00000000
Si      -1.45287252      -2.35064211      -2.03102482       0.00000000
Si      -1.57341852       3.01221648      -0.69345623       0.00000000
Si      -1.26216549       0.15845283       3.23878269       0.00000000
Si       1.65830571       2.06071758      -2.44087395       0.00000000
Si      -3.11885082       0.43750053       1.85341437       0.00000000
Si       0.92512539       0.16099407      -3.62169515       0.00000000
