10
Lattice="16.28999089631971 0.0 0.0 0.0 16.28999089631971 0.0 0.0 0.0 34.31420841018396" Properties=species:S:1:pos:R:3:initial_magmoms:R:1 pbc="T T T"
Si       0.69913422      -0.64707138       2.07257021       0.00000000
Si      -1.43583318       1.79108550      -0.35343654       0.00000000
Si       1.80887418       0.43264611      -1.41782957       0.00000000
Si      -1.27822743      -1.91445619      -0.59610676       0.00000000
Si       1.65144762      -2.50384631       0.78003102       0.00000000
Si      -2.34071010       0.78951114      -2.41205000       0.00000000
Si      -1.61062488      -1.44034551      -2.81764417       0.00000000
Si       1.92933873      -1.24553340      -3.02397562       0.00000000
Si       1.47077523       2.53368144      -2.49756105       0.00000000
Si      -0.23436423       3.62714769      -1.29707780       0.00000000
