10
Lattice="16.28999089631971 0.0 0.0 0.0 16.28999089631971 0.0 0.0 0.0 34.31420841018396" Properties=species:S:1:pos:R:3:initial_magmoms:R:1 pbc="T T T"
Si      -1.26434835       1.45984464      -1.36817688       0.00000000
Si       1.46057769      -1.27645182      -1.36450526       0.00000000
Si       1.76938722       1.01307510       1.22522381       0.00000000
Si      -1.76467941      -1.10752452       1.36055912       0.00000000
Si       0.38781603       2.46659922       2.44331026       0.00000000
Si      -2.60666064       0.09787032      -2.74187836       0.00000000
Si       0.10557549      -2.61322551      -2.73995676       0.00000000
Si      -2.78231571       2.58545106       0.14072265       0.00000000
Si       3.62429694      -0.54815850       1.22941015       0.00000000
Si      -0.49226751      -2.50391961       2.91392989       0.00000000
