10
Lattice="16.28999089631971 0.0 0.0 0.0 16.28999089631971 0.0 0.0 0.0 34.31420841018396" Properties=species:S:1:pos:R:3:initial_magmoms:R:1 pbc="T T T"
Si       0.00169416       0.97647147      -2.09979053       0.00000000
Si      -2.29166810      -0.47223081      -0.12075177       0.00000000
Si       1.58099337      -1.75379280       0.07693250       0.00000000
Si       0.78609024       1.36653552       1.76879549       0.00000000
Si      -2.88281591      -0.01326006       2.06949107       0.00000000
Si      -0.71192187       3.17874915      -1.77425145       0.00000000
Si       3.03386589       0.59684931       2.10795731       0.00000000
Si       3.68020422      -0.75543246       0.31998017       0.00000000
Si       2.13853491       1.07194716      -2.92552810       0.00000000
Si      -2.61942290      -2.77732187      -0.03520640       0.00000000
