10
Lattice="16.28999089631971 0.0 0.0 0.0 16.28999089631971 0.0 0.0 0.0 34.31420841018396" Properties=species:S:1:pos:R:3:initial_magmoms:R:1 pbc="T T T"
Si       1.35746199      -1.35710361      -1.35740221       0.00000000
Si      -1.35729909       1.35788553      -1.35719633       0.00000000
Si      -1.35816246      -1.35795069       1.35654436       0.00000000
Si       1.35697329       1.35752715       1.35819144       0.00000000
Si      -2.70954828      -0.00320913       2.71473580       0.00000000
Si      -2.71450044       0.00016290      -2.71367206       0.00000000
Si       2.71454931       0.00017919      -2.71401520       0.00000000
Si       0.00131949      -2.71453302      -2.71415246       0.00000000
Si      -2.71467963      -2.71459818      -0.00010294       0.00000000
Si       2.71489140      -2.71454931       0.00051471       0.00000000
