10
Lattice="16.28999089631971 0.0 0.0 0.0 16.28999089631971 0.0 0.0 0.0 34.31420841018396" Properties=species:S:1:pos:R:3:initial_magmoms:R:1 pbc="T T T"
Si       2.35170585       0.03842811      -0.12250179       0.00000000
Si      -0.81127458       2.05825779      -0.85445858       0.00000000
Si      -0.08084727      -1.35086454      -2.03078462       0.00000000
Si      -0.42122682      -0.04382010       2.44962408       0.00000000
Si       2.24907885       0.31556988      -2.44849171       0.00000000
Si      -0.03109761      -3.41332515      -0.86955684       0.00000000
Si      -1.04627412      -3.24638523       1.24471429       0.00000000
Si      -1.22075631       3.21351201       1.18010060       0.00000000
Si       1.03586481       2.66163939      -2.28570501       0.00000000
Si      -2.20279896       1.53617958       2.48613442       0.00000000
