10
Lattice="16.28999089631971 0.0 0.0 0.0 16.28999089631971 0.0 0.0 0.0 34.31420841018396" Properties=species:S:1:pos:R:3:initial_magmoms:R:1 pbc="T T T"
Si      -1.78157214       1.57999968       0.03651034       0.00000000
Si       1.58926869       1.01240721       1.49984057       0.00000000
Si       0.12030165      -2.27874294       0.80597258       0.00000000
Si       0.42122682       0.04382010      -2.44962408       0.00000000
Si      -0.62504730      -3.20256513      -1.20490979       0.00000000
Si      -0.79952949       3.25733211      -1.26952348       0.00000000
Si       2.77293267       0.08224821      -2.57212587       0.00000000
Si       1.53262836      -0.09707211       3.62011670       0.00000000
Si      -0.39004776       2.10207789      -3.30408266       0.00000000
Si      -2.84159502      -2.41800615      -1.57176319       0.00000000
