10
Lattice="16.28999089631971 0.0 0.0 0.0 16.28999089631971 0.0 0.0 0.0 34.31420841018396" Properties=species:S:1:pos:R:3:initial_magmoms:R:1 pbc="T T T"
Si      -0.04957047      -1.91140344       1.33345088       0.00000000
Si       0.93323781       1.70243532       1.32861258       0.00000000
Si      -2.06858565       1.10078046      -0.26916080       0.00000000
Si       0.62371152      -0.96658344      -2.06201056       0.00000000
Si       0.01796787       0.79923627       3.35569126       0.00000000
Si      -1.47312099      -1.65934827      -2.86050264       0.00000000
Si      -2.78848962       0.18852417      -2.30818083       0.00000000
Si       1.95843267      -1.93702761       2.53259588       0.00000000
Si      -1.15756740      -1.31680215       3.30964156       0.00000000
Si       1.60575417       0.71074899      -3.36804438       0.00000000
