10
Lattice="16.28999089631971 0.0 0.0 0.0 16.28999089631971 0.0 0.0 0.0 34.31420841018396" Properties=species:S:1:pos:R:3:initial_magmoms:R:1 pbc="T T T"
Si      -2.01725586       0.84075948       0.78236439       0.00000000
Si       1.66724892       1.03079862       1.27079310       0.00000000
Si       0.24799896      -2.35918296      -0.27650405       0.00000000
Si       0.16589736       1.15099945      -2.09697676       0.00000000
Si      -0.40946544      -0.79680906      -3.29282759       0.00000000
Si       3.40092846       0.72918927      -0.26054793       0.00000000
Si      -2.50214400      -1.42413696      -2.18286527       0.00000000
Si      -3.43184688       0.46931490      -1.07056959       0.00000000
Si       0.58210686       3.07233377       1.84222794       0.00000000
Si       2.42069400       1.81589910      -2.15654626       0.00000000
