10
Lattice="16.28999089631971 0.0 0.0 0.0 16.28999089631971 0.0 0.0 0.0 34.31420841018396" Properties=species:S:1:pos:R:3:initial_magmoms:R:1 pbc="T T T"
Si       0.73956600      -0.87314400       1.99046540       0.00000000
Si       1.93987836      -0.50130846      -1.19681163       0.00000000
Si      -1.79978436      -1.01418282      -1.08662864       0.00000000
Si      -0.24799896       2.35918296       0.27650405       0.00000000
Si      -0.65746440       1.56237390      -3.01632355       0.00000000
Si      -2.75014296       0.93504600      -1.90636123       0.00000000
Si       1.35576783       0.23877882      -3.31969563       0.00000000
Si       3.53025477       0.72306423      -0.01214724       0.00000000
Si       0.58901382      -3.25910772       1.68273541       0.00000000
Si       3.04194573      -0.19591983       2.13962935       0.00000000
