10
Lattice="16.28999089631971 0.0 0.0 0.0 16.28999089631971 0.0 0.0 0.0 34.31420841018396" Properties=species:S:1:pos:R:3:initial_magmoms:R:1 pbc="T T T"
Si      -1.35707103       1.35685075      -1.35733359       0.00000000
Si       1.35736425      -1.35752818      -1.35757379       0.00000000
Si      -1.35702216      -1.35844042       1.35705907       0.00000000
Si       1.35705474       1.35800571       1.35795124       0.00000000
Si      -2.71412577      -0.00118816      -2.71411815       0.00000000
Si      -0.00076563       2.71494642      -2.71422109       0.00000000
Si       2.71489140       2.71470207      -0.00027451       0.00000000
Si       2.71505430      -0.00154858      -2.71459854       0.00000000
Si      -2.71490769       2.71475094       0.00041177       0.00000000
Si      -0.00389331       2.71510932       2.71466717       0.00000000
