10
Lattice="16.28999089631971 0.0 0.0 0.0 16.28999089631971 0.0 0.0 0.0 34.31420841018396" Properties=species:S:1:pos:R:3:initial_magmoms:R:1 pbc="T T T"
Si      -1.36023129      -1.33686233      -1.37256910       0.00000000
Si      -1.34324082       1.33138170       1.40873630       0.00000000
Si       1.35439947       1.37963268      -1.37490247       0.00000000
Si       1.22704425      -1.52949158       1.44325641       0.00000000
Si       2.71086777      -2.68528337      -0.01060310       0.00000000
Si      -2.72554506      -2.69826650       0.01259332       0.00000000
Si       2.71016730       2.71425609      -0.00696579       0.00000000
Si      -0.00436572      -2.69456867      -2.73302528       0.00000000
Si       2.71086777       0.02032666      -2.73402040       0.00000000
Si      -2.71549413       2.73360861       0.01001975       0.00000000
