10
Lattice="16.28999089631971 0.0 0.0 0.0 16.28999089631971 0.0 0.0 0.0 34.31420841018396" Properties=species:S:1:pos:R:3:initial_magmoms:R:1 pbc="T T T"
Si       1.35146727       1.36044306      -1.38155943       0.00000000
Si      -1.36588392      -1.35523026      -1.38646637       0.00000000
Si       1.37225331      -1.40222691       1.39871654       0.00000000
Si      -1.26617283       1.36539522       1.60343523       0.00000000
Si       2.45140065       0.13621698       2.75855507       0.00000000
Si      -2.70448209      -2.69809152      -0.01808360       0.00000000
Si      -2.71924083       2.69635338      -0.00909327       0.00000000
Si       2.70868491       2.71751409      -0.00370594       0.00000000
Si       2.71549413      -2.73360861      -0.01001975       0.00000000
Si       2.70972747      -0.00009774      -2.74338818       0.00000000
