10
Lattice="16.28999089631971 0.0 0.0 0.0 16.28999089631971 0.0 0.0 0.0 34.31420841018396" Properties=species:S:1:pos:R:3:initial_magmoms:R:1 pbc="T T T"
Si      -0.83693133      -1.83132343       1.40435235       0.00000000
Si       1.81323990       1.04045859       1.31115491       0.00000000
Si      -1.78516246       1.69751574       0.15053652       0.00000000
Si      -0.18176382      -1.12835943      -2.31394562       0.00000000
Si       1.84713939      -2.38156379      -1.81858543       0.00000000
Si      -2.19179555      -0.50080347       2.93926893       0.00000000
Si       0.50800365       2.24091756       2.92121621       0.00000000
Si      -3.50779805       0.71187300       1.46393901       0.00000000
Si      -2.54924558      -2.95177244       0.06286366       0.00000000
Si      -0.91888143       3.51357381       1.49829785       0.00000000
