10
Lattice="16.28999089631971 0.0 0.0 0.0 16.28999089631971 0.0 0.0 0.0 34.31420841018396" Properties=species:S:1:pos:R:3:initial_magmoms:R:1 pbc="T T T"
Si      -1.35721764      -1.35707103      -1.37785349       0.00000000
Si       1.35596331       1.35896067      -1.38022118       0.00000000
Si       1.31628087      -1.43498610       1.36165718       0.00000000
Si      -1.25737623       1.37148768       1.57083671       0.00000000
Si      -0.25728426      -2.58129711       2.76226101       0.00000000
Si      -2.68605810       2.71262709      -0.00569616       0.00000000
Si      -2.70868491      -2.71751409       0.00370594       0.00000000
Si       2.72992707       2.71370223      -0.00703442       0.00000000
Si      -2.71342530      -0.00114030      -2.73933910       0.00000000
Si       2.71697652      -2.73686661      -0.01327961       0.00000000
