10
Lattice="16.28999089631971 0.0 0.0 0.0 16.28999089631971 0.0 0.0 0.0 34.31420841018396" Properties=species:S:1:pos:R:3:initial_magmoms:R:1 pbc="T T T"
Si       1.35550719       1.35879777       1.35664730       0.00000000
Si       1.35716877      -1.35705474      -1.35777967       0.00000000
Si      -1.35764118       1.35760860      -1.35709339       0.00000000
Si      -1.35811359      -1.35796698       1.35781399       0.00000000
Si       0.00110772       2.71145421       2.71116712       0.00000000
Si       2.71365336      -0.00024435      -2.71422109       0.00000000
Si       0.00024435       2.71337643      -2.71473580       0.00000000
Si       2.71127502       0.00213399       2.71693191       0.00000000
Si       2.71451673       2.71477737      -0.00096080       0.00000000
Si       2.71467963      -2.71500543      -0.00027451       0.00000000
