10
Lattice="16.28999089631971 0.0 0.0 0.0 16.28999089631971 0.0 0.0 0.0 34.31420841018396" Properties=species:S:1:pos:R:3:initial_magmoms:R:1 pbc="T T T"
Si       1.92787263       0.81472806       1.14599226       0.00000000
Si       1.52894682      -1.15484697      -1.46453123       0.00000000
Si      -1.18249110       1.57045374      -1.44339367       0.00000000
Si      -1.27609344      -1.10397330       1.78602123       0.00000000
Si       0.57974481      -0.03075552       3.15567363       0.00000000
Si      -2.40028263      -2.52902250       0.05445668       0.00000000
Si       0.18204075      -2.50186707      -2.83565914       0.00000000
Si      -2.53444707       0.21768327      -2.82907081       0.00000000
Si       2.98618506      -2.41566039      -0.08304043       0.00000000
Si       2.77009821       2.73922866      -0.01273058       0.00000000
