10
Lattice="16.28999089631971 0.0 0.0 0.0 16.28999089631971 0.0 0.0 0.0 34.31420841018396" Properties=species:S:1:pos:R:3:initial_magmoms:R:1 pbc="T T T"
Si       0.58411053      -0.74008728       2.12288400       0.00000000
Si      -0.89893107      -1.80483426      -1.23273863       0.00000000
Si       1.95546789       1.06346007      -0.89052283       0.00000000
Si      -2.01323223       1.32359508       0.30337209       0.00000000
Si      -1.35576783      -0.23877882       3.31969563       0.00000000
Si      -2.74607046      -2.40821586       0.19850781       0.00000000
Si       1.40895468       3.39427923      -0.84718396       0.00000000
Si      -1.48460544      -0.93501342      -3.37751511       0.00000000
Si      -2.63669940       2.12695272      -1.74968246       0.00000000
Si      -1.43786943       3.27140359       1.49922292       0.00000000
