10
Lattice="16.28999089631971 0.0 0.0 0.0 16.28999089631971 0.0 0.0 0.0 34.31420841018396" Properties=species:S:1:pos:R:3:initial_magmoms:R:1 pbc="T T T"
Si       1.25537256      -1.89312606       0.54367462       0.00000000
Si      -0.17407494       0.48900951      -2.28199908       0.00000000
Si       1.56774960       1.59299879       0.71895170       0.00000000
Si      -0.89176347       0.88213608       2.97463176       0.00000000
Si      -0.03000618      -3.14115183      -0.86502736       0.00000000
Si      -0.80282007      -1.78266357      -2.61766085       0.00000000
Si      -0.40361733       2.87452918      -2.02361294       0.00000000
Si       3.27614706      -1.47365856      -0.50421326       0.00000000
Si       1.97324028       1.27439928      -2.84259061       0.00000000
Si      -1.76652018       2.76625444       1.70960345       0.00000000
