10
Lattice="16.28999089631971 0.0 0.0 0.0 16.28999089631971 0.0 0.0 0.0 34.31420841018396" Properties=species:S:1:pos:R:3:initial_magmoms:R:1 pbc="T T T"
Si       1.27961208      -1.93531716       0.17328685       0.00000000
Si      -2.14731522      -0.78538977       0.56059154       0.00000000
Si      -1.18107387       0.18098190      -2.04433874       0.00000000
Si      -2.37685761       1.60012990       0.81897767       0.00000000
Si       1.48592493       2.45689757       0.99507829       0.00000000
Si      -0.53219430       2.16077795       2.12432520       0.00000000
Si      -2.26621593       2.22251705      -1.47290390       0.00000000
Si       2.91112074       0.69579544       1.85049767       0.00000000
Si       1.45945368       3.01282640      -1.32030853       0.00000000
Si      -0.40549068       0.31859951       3.56154231       0.00000000
