10
Lattice="16.28999089631971 0.0 0.0 0.0 16.28999089631971 0.0 0.0 0.0 34.31420841018396" Properties=species:S:1:pos:R:3:initial_magmoms:R:1 pbc="T T T"
Si      -0.64303146      -0.00114030      -2.26044974       0.00000000
Si       0.95226453      -1.91972763       1.08981987       0.00000000
Si      -1.81524357       0.84260025       1.36045618       0.00000000
Si       1.88980290       1.56051684       0.05143703       0.00000000
Si       2.13340356      -2.59735905      -1.11267314       0.00000000
Si       2.13324066      -0.64987326       2.78524266       0.00000000
Si       1.37774304       0.41832720      -3.30833762       0.00000000
Si      -0.54209862       1.99645353       2.95904079       0.00000000
Si       0.96409107       3.12491070       1.58542984       0.00000000
Si       1.78916328       2.49434109      -2.24415048       0.00000000
