10
Lattice="16.28999089631971 0.0 0.0 0.0 16.28999089631971 0.0 0.0 0.0 34.31420841018396" Properties=species:S:1:pos:R:3:initial_magmoms:R:1 pbc="T T T"
Si       1.31600249      -1.21267647       1.47532992       0.00000000
Si       1.72263559       0.98564274      -1.31340249       0.00000000
Si      -0.89244765      -1.95874218      -1.21312643       0.00000000
Si      -1.41268509       1.50807933       1.44975896       0.00000000
Si      -0.04585635       1.07189829      -2.92356331       0.00000000
Si       2.67086672      -2.54319643      -0.05958666       0.00000000
Si      -1.16680383      -1.03693995      -3.35626572       0.00000000
Si      -0.05818788      -2.54740739       2.83386451       0.00000000
Si       2.58891661       2.80170081       0.03435884       0.00000000
Si      -2.78728416      -2.62596429       0.06214993       0.00000000
