10
Lattice="16.28999089631971 0.0 0.0 0.0 16.28999089631971 0.0 0.0 0.0 34.31420841018396" Properties=species:S:1:pos:R:3:initial_magmoms:R:1 pbc="T T T"
Si      -0.59114781       0.45897075       2.19024283       0.00000000
Si      -0.32775480      -2.30509106       0.08554537       0.00000000
Si       2.29166810       0.47223081       0.12075177       0.00000000
Si      -1.44441801       1.55028672      -1.27113625       0.00000000
Si      -2.65536774      -1.97886619       0.07209419       0.00000000
Si       2.29336226       1.44870228      -1.97903876       0.00000000
Si      -2.73259863      -0.56698811       1.99056834       0.00000000
Si      -0.61048404       2.84832279       1.93823915       0.00000000
Si      -0.40679388       3.48469164      -0.35848074       0.00000000
Si       0.94544946      -0.44317271       3.75332453       0.00000000
