10
Lattice="16.28999089631971 0.0 0.0 0.0 16.28999089631971 0.0 0.0 0.0 34.31420841018396" Properties=species:S:1:pos:R:3:initial_magmoms:R:1 pbc="T T T"
Si      -1.68306651       0.10560807      -1.67254408       0.00000000
Si       0.91465092      -2.19372543      -0.03410834       0.00000000
Si      -1.40349753       0.41857155       1.92327814       0.00000000
Si       1.62786689       1.70264709      -0.54943941       0.00000000
Si      -2.46568698       2.34900171       0.95685224       0.00000000
Si      -3.12650712      -1.63128060      -0.96090132       0.00000000
Si       1.12485708       1.76107932      -3.03934839       0.00000000
Si       0.71096076      -2.83009428       2.26261154       0.00000000
Si       2.90119103      -2.02743711      -1.32912729       0.00000000
Si       0.02836089       0.57674745       3.85118870       0.00000000
