10
Lattice="16.28999089631971 0.0 0.0 0.0 16.28999089631971 0.0 0.0 0.0 34.31420841018396" Properties=species:S:1:pos:R:3:initial_magmoms:R:1 pbc="T T T"
Si      -0.98124444      -1.68513534      -1.35911793       0.00000000
Si       1.27241190      -1.39639509       1.55337077       0.00000000
Si       1.76467941       1.10752452      -1.36055912       0.00000000
Si      -1.91803347       2.03418117       0.40336375       0.00000000
Si       1.18869759       0.42210648       3.12698693       0.00000000
Si      -2.20371283      -0.16636977      -2.74551566       0.00000000
Si       0.36082350       2.61433323       2.40618227       0.00000000
Si       0.50033106       2.56736916      -2.72873601       0.00000000
Si      -2.27116157      -3.11930694       0.05112820       0.00000000
Si      -3.55640473       1.10951190      -1.33152929       0.00000000
