10
Lattice="16.28999089631971 0.0 0.0 0.0 16.28999089631971 0.0 0.0 0.0 34.31420841018396" Properties=species:S:1:pos:R:3:initial_magmoms:R:1 pbc="T T T"
Si      -1.34864910      -1.36531377       1.37984029       0.00000000
Si       1.36638891       1.35148356       1.37661475       0.00000000
Si       1.25022492      -1.52401095      -1.37275783       0.00000000
Si      -1.39437513       1.33273377      -1.47924517       0.00000000
Si      -2.69962767       2.69061930       0.02668617       0.00000000
Si       0.16229727       2.61897588      -2.76626003       0.00000000
Si      -2.70249471      -2.69702127       0.00655745       0.00000000
Si       2.73424392       2.69943219      -0.00479370       0.00000000
Si       2.70795186      -2.73523761       0.00666382       0.00000000
Si      -2.70669753      -0.00804726       2.73707093       0.00000000
