10
Lattice="16.28999089631971 0.0 0.0 0.0 16.28999089631971 0.0 0.0 0.0 34.31420841018396" Properties=species:S:1:pos:R:3:initial_magmoms:R:1 pbc="T T T"
Si       1.35643572      -1.35883035       1.35939244       0.00000000
Si      -1.36067112       1.35674523       1.36062775       0.00000000
Si      -1.36638891      -1.35148356      -1.37661475       0.00000000
Si       1.36785501       1.34794863      -1.38140845       0.00000000
Si      -2.71306692       2.71381626       0.00284808       0.00000000
Si       2.71260007       2.71806795      -0.00068628       0.00000000
Si       2.71447668      -0.00073305       2.71724074       0.00000000
Si       2.71729159      -2.71445157      -0.00154414       0.00000000
Si      -2.71503801      -2.71679733       0.00322554       0.00000000
Si      -0.00140094       2.71489140       2.71796134       0.00000000
