10
Lattice="16.28999089631971 0.0 0.0 0.0 16.28999089631971 0.0 0.0 0.0 34.31420841018396" Properties=species:S:1:pos:R:3:initial_magmoms:R:1 pbc="T T T"
Si      -1.35536058       1.35635427      -1.35774536       0.00000000
Si      -1.35648459      -1.35681039       1.35644142       0.00000000
Si       1.35870003       1.35718506       1.35609827       0.00000000
Si       1.36226754      -1.35645201      -1.35922087       0.00000000
Si      -2.71340901       2.71362078      -0.00051471       0.00000000
Si      -2.71309950      -2.71472850      -0.00168140       0.00000000
Si      -2.71365336       0.00024435       2.71422109       0.00000000
Si       0.00086337       2.71502172       2.71326029       0.00000000
Si       0.00102627      -2.71476108       2.71394657       0.00000000
Si       2.71462763      -2.71495656      -0.00030883       0.00000000
