10
Lattice="16.28999089631971 0.0 0.0 0.0 16.28999089631971 0.0 0.0 0.0 34.31420841018396" Properties=species:S:1:pos:R:3:initial_magmoms:R:1 pbc="T T T"
Si       1.35575154       1.35461124       1.35856890       0.00000000
Si      -1.35755973       1.35778779      -1.35651004       0.00000000
Si      -1.35900954      -1.35597960       1.35760810       0.00000000
Si       1.35783666      -1.35783666      -1.35716202       0.00000000
Si      -2.71340901      -0.00332316       2.71212792       0.00000000
Si      -2.71427238      -0.00140094      -2.71377500       0.00000000
Si      -0.00086337      -2.71502172      -2.71326029       0.00000000
Si      -0.00185706       2.71487511      -2.71360343       0.00000000
Si      -2.71451673      -2.71477737       0.00096080       0.00000000
Si      -2.71438641       2.71490769       0.00099511       0.00000000
