10
Lattice="16.28999089631971 0.0 0.0 0.0 16.28999089631971 0.0 0.0 0.0 34.31420841018396" Properties=species:S:1:pos:R:3:initial_magmoms:R:1 pbc="T T T"
Si       1.34407512       1.35883035      -1.37445639       0.00000000
Si      -1.27998675       1.44078534       1.37366716       0.00000000
Si      -1.37396376      -1.35474156      -1.37318676       0.00000000
Si       1.35047625      -1.45642374       1.39518218       0.00000000
Si      -2.40314967       0.08871534       2.92923404       0.00000000
Si       2.69771101       2.70029556       0.01019133       0.00000000
Si       2.70118892      -0.00026064      -2.73220174       0.00000000
Si       2.70316816      -2.73230541      -0.01880420       0.00000000
Si      -2.73722499       2.70159876      -0.00782364       0.00000000
Si      -2.72992707      -2.71370223       0.00703442       0.00000000
