10
Lattice="16.28999089631971 0.0 0.0 0.0 16.28999089631971 0.0 0.0 0.0 34.31420841018396" Properties=species:S:1:pos:R:3:initial_magmoms:R:1 pbc="T T T"
Si       1.74526173       1.29749850       0.79962445       0.00000000
Si      -1.98755919       0.10257813       1.25929784       0.00000000
Si       1.06218945      -1.93043016       0.96642591       0.00000000
Si      -0.49083399      -0.24452919      -2.37073567       0.00000000
Si      -3.13621596      -1.44586782      -0.09758966       0.00000000
Si       2.46568698      -2.34900171      -0.95685224       0.00000000
Si       0.78262047      -2.24339364      -2.62939632       0.00000000
Si       0.76512501       3.32130294       1.36306406       0.00000000
Si       3.38960691       1.53803664      -0.82542874       0.00000000
Si      -2.96901540       2.24209044       1.09482975       0.00000000
