10
Lattice="16.28999089631971 0.0 0.0 0.0 16.28999089631971 0.0 0.0 0.0 34.31420841018396" Properties=species:S:1:pos:R:3:initial_magmoms:R:1 pbc="T T T"
Si       0.49127382       2.25551340      -0.29400430       0.00000000
Si      -0.71987139       0.10226862       2.26449882       0.00000000
Si      -1.43185842      -0.15817590      -1.92791056       0.00000000
Si       1.56336663      -1.84417461      -0.03397109       0.00000000
Si      -3.04393311      -1.69762977      -1.16647785       0.00000000
Si      -2.32920936      -1.67234769       2.40834406       0.00000000
Si      -0.74878614       3.06975276      -2.09471202       0.00000000
Si       0.68259987      -3.40684173      -1.58857717       0.00000000
Si      -0.02836089      -0.57674745      -3.85118870       0.00000000
Si      -0.18725355       3.60873999       1.50450731       0.00000000
