10
Lattice="16.28999089631971 0.0 0.0 0.0 16.28999089631971 0.0 0.0 0.0 34.31420841018396" Properties=species:S:1:pos:R:3:initial_magmoms:R:1 pbc="T T T"
Si       0.98013672      -2.02380444      -0.56343962       0.00000000
Si      -2.14376400       0.14516019       0.91643008       0.00000000
Si       1.56022362       0.68123151       1.62364631       0.00000000
Si      -0.17269029       0.70131708      -2.26854790       0.00000000
Si       3.25716027       1.24139574      -0.00411771       0.00000000
Si       0.36663903       2.96240298      -1.92344971       0.00000000
Si      -0.76512501      -3.32130294      -1.36306406       0.00000000
Si      -2.52108927       2.51046819       0.94453343       0.00000000
Si       1.54166931      -1.48481721       3.03577971       0.00000000
Si       2.22019668      -2.83804380       1.23726810       0.00000000
