10
Lattice="16.28999089631971 0.0 0.0 0.0 16.28999089631971 0.0 0.0 0.0 34.31420841018396" Properties=species:S:1:pos:R:3:initial_magmoms:R:1 pbc="T T T"
Si      -0.67435713      -2.24253027       0.35429440       0.00000000
Si       2.21654772      -0.78455898       0.36685341       0.00000000
Si      -0.44851257       0.89453277      -2.19628214       0.00000000
Si      -1.25042040       1.16062992       1.72350071       0.00000000
Si       1.57341852      -3.01221648       0.69345623       0.00000000
Si      -1.03680963       3.30524100       0.80978146       0.00000000
Si      -1.23356025       3.02601411      -1.51905654       0.00000000
Si       3.23172423      -0.95149890      -1.74741773       0.00000000
Si       2.96189667       0.13926321       2.37773577       0.00000000
Si      -2.17236924      -0.43031664      -3.18875254       0.00000000
