10
Lattice="16.28999089631971 0.0 0.0 0.0 16.28999089631971 0.0 0.0 0.0 34.31420841018396" Properties=species:S:1:pos:R:3:initial_magmoms:R:1 pbc="T T T"
Si      -1.76672936      -1.39129632       0.79084000       0.00000000
Si       0.86302302       1.49677407       1.65072023       0.00000000
Si      -0.40801400       1.47297438      -1.84119851       0.00000000
Si       1.52838644      -1.43143488      -1.25192028       0.00000000
Si       2.63858252       2.20783257       0.20238531       0.00000000
Si       1.82339834       2.30391099      -2.07529017       0.00000000
Si      -1.28878076      -0.08969274      -3.39580459       0.00000000
Si      -3.66918959      -0.51015393      -0.33096073       0.00000000
Si       0.26715274      -3.38118824      -1.58071921       0.00000000
Si       3.38507177      -1.71048258       0.13344803       0.00000000
