10
Lattice="16.28999089631971 0.0 0.0 0.0 16.28999089631971 0.0 0.0 0.0 34.31420841018396" Properties=species:S:1:pos:R:3:initial_magmoms:R:1 pbc="T T T"
Si      -0.86302302      -1.49677407      -1.65072023       0.00000000
Si       1.77555950       0.71105850      -1.44833492       0.00000000
Si       0.30928031      -0.91476495       2.22534629       0.00000000
Si      -1.76051799       1.63615131       0.36983874       0.00000000
Si       1.82262131       1.03953006       2.91358675       0.00000000
Si      -1.99160793      -1.04661621       2.84725735       0.00000000
Si      -1.27103702      -0.02379969      -3.49191874       0.00000000
Si       2.59753661       2.69969283      -0.44577613       0.00000000
Si       3.44412791      -0.96097968      -1.47036465       0.00000000
Si      -3.15230301       0.87747714       2.13959503       0.00000000
