10
Lattice="16.28999089631971 0.0 0.0 0.0 16.28999089631971 0.0 0.0 0.0 34.31420841018396" Properties=species:S:1:pos:R:3:initial_magmoms:R:1 pbc="T T T"
Si      -1.35363589      -1.34146521      -1.38464771       0.00000000
Si       1.36355608       1.37318184      -1.38622617       0.00000000
Si      -1.31104754       1.45347525       1.38660362       0.00000000
Si       1.19153368      -1.57325562       1.49668366       0.00000000
Si      -2.69771101      -2.70029556      -0.01019133       0.00000000
Si       2.70950104      -2.69886204      -0.01221587       0.00000000
Si       2.69413957       2.73281040      -0.03153478       0.00000000
Si       0.00347792      -2.70055620      -2.74239307       0.00000000
Si      -2.70996109       2.73958704      -0.02007382       0.00000000
Si      -2.71268152       0.01221750      -2.74270190       0.00000000
