10
Lattice="16.28999089631971 0.0 0.0 0.0 16.28999089631971 0.0 0.0 0.0 34.31420841018396" Properties=species:S:1:pos:R:3:initial_magmoms:R:1 pbc="T T T"
Si       1.52384805      -1.10713356       1.44564811       0.00000000
Si       1.27845549       1.60849382      -1.26875625       0.00000000
Si      -1.19923722       1.59599646       1.43138026       0.00000000
Si      -0.81243117      -1.87890489      -1.54663287       0.00000000
Si      -2.51305830      -2.59788033      -0.00285838       0.00000000
Si       2.82190041      -2.42390313      -0.09447050       0.00000000
Si       0.16332354      -2.46265704       2.82827472       0.00000000
Si      -2.55345913       0.25731684       2.82017656       0.00000000
Si      -2.53710234       2.97488536      -0.07224517       0.00000000
Si       1.16027154      -3.51458379      -1.51297061       0.00000000
