10
Lattice="16.28999089631971 0.0 0.0 0.0 16.28999089631971 0.0 0.0 0.0 34.31420841018396" Properties=species:S:1:pos:R:3:initial_magmoms:R:1 pbc="T T T"
Si       1.33058349       1.35962856       1.35469139       0.00000000
Si       1.35550719      -1.35682668      -1.35740221       0.00000000
Si      -1.36163712       1.35487188      -1.35781399       0.00000000
Si      -1.36355608      -1.37318184       1.38622617       0.00000000
Si       2.60380989      -0.13344768       2.59933705       0.00000000
Si       2.71182888       2.71373481       0.00384319       0.00000000
Si       2.71311579      -0.00026064      -2.71404952       0.00000000
Si      -2.71573850       2.71192662      -0.00126963       0.00000000
Si      -0.00175932       2.71409591      -2.71408383       0.00000000
Si      -0.00136836      -2.71590138      -2.71415246       0.00000000
