10
Lattice="16.28999089631971 0.0 0.0 0.0 16.28999089631971 0.0 0.0 0.0 34.31420841018396" Properties=species:S:1:pos:R:3:initial_magmoms:R:1 pbc="T T T"
Si       1.24812677       1.37131893      -1.47345293       0.00000000
Si      -1.31575210       1.30737024       1.53672837       0.00000000
Si      -1.42294193      -1.31698134      -1.45921253       0.00000000
Si       1.84795715      -1.20422196       1.17519367       0.00000000
Si       1.06839920      -0.66075498       3.31228376       0.00000000
Si      -1.23991498      -0.05608647       3.59963110       0.00000000
Si       0.00523886       3.42543581       1.70401023       0.00000000
Si       3.11233808       2.22833746      -0.33277938       0.00000000
Si       2.58224519      -0.03764619      -2.87735093       0.00000000
Si      -2.97726207       2.48208354       0.15547777       0.00000000
