10
Lattice="16.28999089631971 0.0 0.0 0.0 16.28999089631971 0.0 0.0 0.0 34.63643526849801" Properties=species:S:1:pos:R:3:initial_magmoms:R:1 pbc="T T T"
Si      -1.35568638       1.35971761      -1.36297913       0.00000000
Si       1.35905841      -1.35723026      -1.36329085       0.00000000
Si      -1.36104579      -1.35159392       1.38105936       0.00000000
Si       1.35140211       1.37938616       1.37707616       0.00000000
Si       2.71285515      -2.71065233      -0.00412174       0.00000000
Si       2.71544526       2.71600998      -0.00394856       0.00000000
Si      -2.71712313      -2.71464338      -0.00356755       0.00000000
Si       0.00083079      -2.71376372      -2.72055496       0.00000000
Si      -2.71430496       0.00135883      -2.72003542       0.00000000
Si       0.00105885       2.71680819      -2.72031251       0.00000000
