10
Lattice="16.28999089631971 0.0 0.0 0.0 16.28999089631971 0.0 0.0 0.0 34.63643526849801" Properties=species:S:1:pos:R:3:initial_magmoms:R:1 pbc="T T T"
Si       1.36404315       1.33662382      -1.38102472       0.00000000
Si      -1.35140211      -1.37938616      -1.37707616       0.00000000
Si       1.55582532      -1.21468503       1.33204877       0.00000000
Si      -1.45165077       1.35731212       1.46408294       0.00000000
Si       2.71884987       2.69335276       0.00616529       0.00000000
Si      -2.71694394       2.70951244      -0.00249382       0.00000000
Si       0.00848709       2.69675737      -2.74022847       0.00000000
Si      -2.71244790      -2.73098007       0.00398319       0.00000000
Si       2.72029968      -2.72547405      -0.04301848       0.00000000
Si      -2.70708849      -0.01966855      -2.74005529       0.00000000
