10
Lattice="16.28999089631971 0.0 0.0 0.0 16.28999089631971 0.0 0.0 0.0 34.63643526849801" Properties=species:S:1:pos:R:3:initial_magmoms:R:1 pbc="T T T"
Si      -1.93969917      -1.49123058       0.25679467       0.00000000
Si       0.93665871       1.88967258       1.39453294       0.00000000
Si      -0.73337580       2.04773445      -1.33218732       0.00000000
Si       1.94857722      -0.16210179       1.72046197       0.00000000
Si      -1.08965439       1.60476048       2.41883681       0.00000000
Si      -1.85227074       0.62330427      -2.88081784       0.00000000
Si       0.75166947      -1.74347960       2.94669638       0.00000000
Si       3.00975669      -1.12985974      -1.59899193       0.00000000
Si      -1.30717476      -0.51008225       3.42204708       0.00000000
Si      -3.34168173      -0.64654033      -1.48933291       0.00000000
