10
Lattice="16.28999089631971 0.0 0.0 0.0 16.28999089631971 0.0 0.0 0.0 34.63643526849801" Properties=species:S:1:pos:R:3:initial_magmoms:R:1 pbc="T T T"
Si      -1.30246695      -1.91298357       0.77204657       0.00000000
Si       0.03937293       0.63908928       2.43990759       0.00000000
Si      -0.79157997       0.95749362      -2.57833768       0.00000000
Si       2.66892102      -1.06163559      -0.49564767       0.00000000
Si       0.55087893      -3.61314643       0.93695073       0.00000000
Si       3.53616804       1.08211212      -0.84786577       0.00000000
Si      -1.39206195      -3.51432804      -0.92576316       0.00000000
Si       1.83137067       2.34110106       2.56342465       0.00000000
Si       2.51315604       3.00447873       0.39852705       0.00000000
Si       0.90846072      -1.18807857       3.84156871       0.00000000
