10
Lattice="16.28999089631971 0.0 0.0 0.0 16.28999089631971 0.0 0.0 0.0 34.63643526849801" Properties=species:S:1:pos:R:3:initial_magmoms:R:1 pbc="T T T"
Si      -1.35705474      -1.35555606      -1.35702166       0.00000000
Si       1.35767376      -1.35654975       1.35785293       0.00000000
Si      -1.35723393       1.35801585       1.35795684       0.00000000
Si       1.35798327       1.35610992      -1.36093558       0.00000000
Si       0.00092853      -2.71364033       2.71518631       0.00000000
Si      -2.71455094      -2.71460307      -0.00003464       0.00000000
Si       2.72091870      -0.00710244      -2.70832830       0.00000000
Si       0.00074934       2.71474479       2.71487459       0.00000000
Si      -2.71584274       0.00091224       2.71393940       0.00000000
Si       2.71581993      -2.71413229       0.00055418       0.00000000
