10
Lattice="16.28999089631971 0.0 0.0 0.0 16.28999089631971 0.0 0.0 0.0 34.63643526849801" Properties=species:S:1:pos:R:3:initial_magmoms:R:1 pbc="T T T"
Si       0.39324060      -0.44984835       2.26525877       0.00000000
Si       1.61430642       1.72271637      -0.36918997       0.00000000
Si      -2.20936383       0.84655872      -0.34691873       0.00000000
Si      -0.05102028      -1.80934659      -1.60127793       0.00000000
Si       2.68219737       0.24602787       2.20994435       0.00000000
Si      -2.34851301       0.40534407      -2.68938216       0.00000000
Si      -0.47400642      -2.59359606       2.61747688       0.00000000
Si       3.52686645       0.56435076      -1.07431891       0.00000000
Si      -2.17919475      -1.93808646      -2.50418103       0.00000000
Si      -0.62977140       1.47251826       3.51165159       0.00000000
