10
Lattice="16.28999089631971 0.0 0.0 0.0 16.28999089631971 0.0 0.0 0.0 34.63643526849801" Properties=species:S:1:pos:R:3:initial_magmoms:R:1 pbc="T T T"
Si       2.11509360      -1.00090810       0.25676004       0.00000000
Si      -0.67705964       0.80219453       2.14423900       0.00000000
Si      -1.42108258      -1.55613224      -1.22505676       0.00000000
Si       0.53401878       1.51590830      -1.95647478       0.00000000
Si      -1.69409158       2.86167407      -1.59248027       0.00000000
Si      -2.83971257       1.70534471       1.70075383       0.00000000
Si       3.20665392      -0.72809947      -1.88124440       0.00000000
Si       1.09310787       2.20378613       2.92238159       0.00000000
Si      -0.34694442      -0.96031668       3.72071723       0.00000000
Si      -3.56976521      -0.46357756      -1.53834350       0.00000000
