10
Lattice="16.28999089631971 0.0 0.0 0.0 16.28999089631971 0.0 0.0 0.0 34.63643526849801" Properties=species:S:1:pos:R:3:initial_magmoms:R:1 pbc="T T T"
Si       1.28037771      -0.01699047       1.98660849       0.00000000
Si      -0.59033331       2.24051031      -0.46901223       0.00000000
Si      -1.86950556      -1.37955123       0.53648405       0.00000000
Si       1.68897978      -0.93164139      -1.45171772       0.00000000
Si      -0.80288523      -0.87659748       2.81424657       0.00000000
Si       2.38936833      -2.74634739      -0.11516621       0.00000000
Si      -3.55302819      -0.38162583      -0.87986986       0.00000000
Si       2.29377861       2.16215541       1.95290722       0.00000000
Si       1.18589571       3.58783992       0.35138683       0.00000000
Si      -1.43430192      -3.62250504      -0.09289497       0.00000000
