10
Lattice="16.28999089631971 0.0 0.0 0.0 16.28999089631971 0.0 0.0 0.0 34.63643526849801" Properties=species:S:1:pos:R:3:initial_magmoms:R:1 pbc="T T T"
Si       2.08326294       0.85960701      -0.82763808       0.00000000
Si      -0.70011162       1.81392408       1.45078254       0.00000000
Si       0.94817574      -2.11994802       0.95142877       0.00000000
Si      -1.06662033      -0.50295375      -2.27776253       0.00000000
Si       0.80288523       0.87659748      -2.81424657       0.00000000
Si      -2.05148115       0.45820512       2.96160187       0.00000000
Si       3.04010496      -1.26355014       1.54696797       0.00000000
Si      -2.07221832       3.33927081       0.16400361       0.00000000
Si       3.81956517      -0.82854198      -0.73290738       0.00000000
Si      -0.63141669      -2.74590756      -2.90714155       0.00000000
