10
Lattice="16.28999089631971 0.0 0.0 0.0 16.28999089631971 0.0 0.0 0.0 34.63643526849801" Properties=species:S:1:pos:R:3:initial_magmoms:R:1 pbc="T T T"
Si       0.43520364      -2.24295381      -0.62937902       0.00000000
Si       1.86950556       1.37955123      -0.53648405       0.00000000
Si      -1.68352263       0.99792540      -1.41635390       0.00000000
Si       1.06662033       0.50295375       2.27776253       0.00000000
Si      -3.26502099      -0.23846931       1.62666646       0.00000000
Si       3.14988327       1.36256076       1.45012445       0.00000000
Si      -2.19217788       3.16563570      -0.50641960       0.00000000
Si      -1.28993994      -3.66397938       0.25232657       0.00000000
Si      -0.90624528       0.58228605      -3.77326073       0.00000000
Si       1.27917225       3.62006154      -1.00549628       0.00000000
