10
Lattice="16.28999089631971 0.0 0.0 0.0 16.28999089631971 0.0 0.0 0.0 34.63643526849801" Properties=species:S:1:pos:R:3:initial_magmoms:R:1 pbc="T T T"
Si       1.35044100       1.33387407      -1.37583964       0.00000000
Si       1.35347094      -1.35610992       1.35861493       0.00000000
Si      -1.35855342       1.35876356       1.35754120       0.00000000
Si      -1.36963062      -1.33307586      -1.38660119       0.00000000
Si      -0.07229502       2.65317252      -2.70129363       0.00000000
Si       2.71274112      -2.71423980      -0.00557647       0.00000000
Si       2.71132389       2.71566585      -0.00474519       0.00000000
Si       2.71169856       0.00185706       2.71556732       0.00000000
Si      -0.00244350      -2.71342530       2.71529022       0.00000000
Si      -0.00221544       2.71684687       2.71594832       0.00000000
