10
Lattice="16.28999089631971 0.0 0.0 0.0 16.28999089631971 0.0 0.0 0.0 34.63643526849801" Properties=species:S:1:pos:R:3:initial_magmoms:R:1 pbc="T T T"
Si       1.87835103       1.00822068       1.05610014       0.00000000
Si      -1.36946772       1.34762283      -1.40592833       0.00000000
Si       1.33662708      -1.37085237      -1.42757611       0.00000000
Si      -1.45678212      -1.24781400       1.53345976       0.00000000
Si       0.68603706       1.16620110       3.05992295       0.00000000
Si       2.63893113      -2.59792920       0.08977769       0.00000000
Si      -2.68799661      -2.71285515      -0.01510149       0.00000000
Si      -0.00842193       2.69921675      -2.78698768       0.00000000
Si      -2.82436020       2.66872554       0.05472560       0.00000000
Si       2.70443322      -0.01143558      -2.79110942       0.00000000
