10
Lattice="16.28999089631971 0.0 0.0 0.0 16.28999089631971 0.0 0.0 0.0 34.63643526849801" Properties=species:S:1:pos:R:3:initial_magmoms:R:1 pbc="T T T"
Si       0.82442061      -0.29351322      -2.22400675       0.00000000
Si      -1.69520256       1.69443434       0.05140050       0.00000000
Si       1.87201422      -0.13419702       1.54520151       0.00000000
Si      -0.55987101      -2.27255274       0.73578221       0.00000000
Si      -1.96560027       1.21486163       2.47979697       0.00000000
Si       1.20399390      -3.31926669      -0.43060040       0.00000000
Si       2.98022292      -1.97193708       0.38979866       0.00000000
Si       0.46265229      -2.62189179      -2.58710071       0.00000000
Si       3.04046334       0.55211697      -2.39154328       0.00000000
Si       3.12720759       1.95270578       1.45400373       0.00000000
