10
Lattice="16.28999089631971 0.0 0.0 0.0 16.28999089631971 0.0 0.0 0.0 34.63643526849801" Properties=species:S:1:pos:R:3:initial_magmoms:R:1 pbc="T T T"
Si       0.95899230      -1.04293467      -1.89648444       0.00000000
Si       0.36176832       2.32837857       0.36309395       0.00000000
Si       0.74134161      -0.69737490       2.15650030       0.00000000
Si      -2.35722816      -0.20911473      -0.58760745       0.00000000
Si      -1.02252330       0.34933905       3.32288291       0.00000000
Si      -0.46265229       2.62189179       2.58710071       0.00000000
Si      -0.72319455       3.47689543      -1.36010430       0.00000000
Si      -0.07802910      -0.14203251      -3.80297881       0.00000000
Si      -2.84250726       1.41662727      -2.19712886       0.00000000
Si       0.62723016      -3.38032161      -1.80958157       0.00000000
