10
Lattice="16.28999089631971 0.0 0.0 0.0 16.28999089631971 0.0 0.0 0.0 34.63643526849801" Properties=species:S:1:pos:R:3:initial_magmoms:R:1 pbc="T T T"
Si       1.35729909       1.35547682       1.35754120       0.00000000
Si       1.35679410      -1.35687401      -1.35695238       0.00000000
Si      -1.35711990       1.35811580      -1.35657138       0.00000000
Si      -1.35726651      -1.35834011       1.35774902       0.00000000
Si       2.71432125      -2.71405907       0.00017318       0.00000000
Si      -2.71345788       0.00003249      -2.71497850       0.00000000
Si      -0.00346977      -2.71176218       2.71691814       0.00000000
Si      -0.00143352      -2.71484099      -2.71390477       0.00000000
Si       2.71549413      -0.00099215       2.71355840       0.00000000
Si      -0.00237834       2.71760427      -2.71165340       0.00000000
