10
Lattice="16.28999089631971 0.0 0.0 0.0 16.28999089631971 0.0 0.0 0.0 34.63643526849801" Properties=species:S:1:pos:R:3:initial_magmoms:R:1 pbc="T T T"
Si       1.16447436      -1.51078903      -1.37506725       0.00000000
Si      -1.55582532       1.21468503      -1.33204877       0.00000000
Si      -1.02045447      -1.85569720       1.13396289       0.00000000
Si       1.85455134       0.81883314       1.41386008       0.00000000
Si       3.32449578      -1.06367740       1.25089556       0.00000000
Si       2.52459162      -0.16458343      -2.71660641       0.00000000
Si       2.64715758       2.61312940       0.09448825       0.00000000
Si      -0.19178217       2.55130885      -2.71307349       0.00000000
Si       2.44416789      -2.86197937       0.01704114       0.00000000
Si      -1.15520535       1.94869288       3.01285201       0.00000000
