10
Lattice="16.28999089631971 0.0 0.0 0.0 16.28999089631971 0.0 0.0 0.0 34.63643526849801" Properties=species:S:1:pos:R:3:initial_magmoms:R:1 pbc="T T T"
Si      -1.03944861      -0.27748386      -2.08362520       0.00000000
Si       2.11372524      -0.91784376      -0.48307463       0.00000000
Si       0.23278410       2.30272182       0.50544978       0.00000000
Si      -1.35283563      -1.45171430       1.47856098       0.00000000
Si       0.26308350      -3.08528432       1.10604591       0.00000000
Si      -0.09736533      -2.31971881      -2.76243044       0.00000000
Si       3.45488094       1.00277982      -0.75916181       0.00000000
Si      -3.23227809      -1.01086455      -1.51998617       0.00000000
Si       2.50372413      -2.35587935       1.41947118       0.00000000
Si      -0.68056362       3.40573401      -1.39006483       0.00000000
