10
Lattice="16.28999089631971 0.0 0.0 0.0 16.28999089631971 0.0 0.0 0.0 34.63643526849801" Properties=species:S:1:pos:R:3:initial_magmoms:R:1 pbc="T T T"
Si       1.35835794      -1.35387819       1.35677920       0.00000000
Si      -1.35848826      -1.35624024      -1.35705629       0.00000000
Si       1.35702216       1.35843939      -1.35722947       0.00000000
Si      -1.35847197       1.35873261       1.36252885       0.00000000
Si       2.69293248      -0.00281817       2.72640853       0.00000000
Si      -2.71409319      -2.71166598       0.00048491       0.00000000
Si       2.71350675      -2.71513575       0.00031173       0.00000000
Si      -0.00089595      -2.71487511      -2.71411258       0.00000000
Si       2.71459818       0.00184077      -2.71463213       0.00000000
Si      -2.71555929       0.00122175      -2.71435504       0.00000000
