10
Lattice="16.28999089631971 0.0 0.0 0.0 16.28999089631971 0.0 0.0 0.0 34.63643526849801" Properties=species:S:1:pos:R:3:initial_magmoms:R:1 pbc="T T T"
Si      -1.91256003       1.15836561       0.70512894       0.00000000
Si       1.81615581       1.46965122      -0.24862047       0.00000000
Si       0.91334772      -1.10301219       1.89551462       0.00000000
Si      -0.35849403      -1.51141878      -1.80746875       0.00000000
Si      -0.84466908      -0.31832289       3.28426326       0.00000000
Si       3.51979659      -0.25557381      -0.40012032       0.00000000
Si       1.12868523      -0.56314530      -3.39593119       0.00000000
Si      -3.52686645      -0.56435076       1.07431891       0.00000000
Si       0.68056362      -3.40573401       1.39006483       0.00000000
Si      -0.35888499      -3.68321787      -0.69356037       0.00000000
