10
Lattice="16.28999089631971 0.0 0.0 0.0 16.28999089631971 0.0 0.0 0.0 34.63643526849801" Properties=species:S:1:pos:R:3:initial_magmoms:R:1 pbc="T T T"
Si      -0.08505009       1.34967537      -1.92149196       0.00000000
Si       1.01268414      -2.10510783      -0.30930354       0.00000000
Si      -1.98255816      -0.49847400       1.20676872       0.00000000
Si       0.79162884       1.88248869       1.51288570       0.00000000
Si      -0.76427793       2.88473094      -0.23265307       0.00000000
Si       2.35915038       0.22213044       2.28742610       0.00000000
Si       2.09565963      -2.07231606       1.79060079       0.00000000
Si       2.26808928       1.78481385      -1.96655398       0.00000000
Si      -3.85023924      -0.50375196      -0.27369726       0.00000000
Si       2.48777622      -2.17124523      -2.12072084       0.00000000
