10
Lattice="16.28999089631971 0.0 0.0 0.0 16.28999089631971 0.0 0.0 0.0 34.63643526849801" Properties=species:S:1:pos:R:3:initial_magmoms:R:1 pbc="T T T"
Si      -1.28037771       0.01699047      -1.98660849       0.00000000
Si      -2.08326294      -0.85960701       0.82763808       0.00000000
Si       1.01340090       2.17914588      -0.03370127       0.00000000
Si       1.73630223      -1.68814899       0.09473070       0.00000000
Si       0.95684202      -2.12315715       2.37460606       0.00000000
Si       0.40860207      -0.91465092      -3.43832621       0.00000000
Si       2.97217566       1.41591051      -1.44593343       0.00000000
Si       1.10899062      -2.72935692      -2.10177470       0.00000000
Si      -1.13508720      -2.97955503       1.77906686       0.00000000
Si       3.70372698      -0.31703598       0.05160832       0.00000000
