10
Lattice="16.28999089631971 0.0 0.0 0.0 16.28999089631971 0.0 0.0 0.0 34.63643526849801" Properties=species:S:1:pos:R:3:initial_magmoms:R:1 pbc="T T T"
Si       1.35145098       1.34311050       1.39278380       0.00000000
Si      -1.35909099      -1.37525067       1.38353586       0.00000000
Si       1.39263210      -1.36495539      -1.40613615       0.00000000
Si      -1.38774510       1.37409408      -1.58464551       0.00000000
Si      -0.34573896      -2.28514491      -2.67317565       0.00000000
Si      -2.15552538      -0.55866555      -2.90287922       0.00000000
Si       2.69459406       2.68991883       0.01120489       0.00000000
Si      -2.72139111       2.67286320       0.01327269       0.00000000
Si      -0.00052128       2.69559699       2.74786581       0.00000000
Si       2.70896184      -2.74507677       0.01828805       0.00000000
