10
Lattice="16.28999089631971 0.0 0.0 0.0 16.28999089631971 0.0 0.0 0.0 34.63643526849801" Properties=species:S:1:pos:R:3:initial_magmoms:R:1 pbc="T T T"
Si      -1.35679410       1.35687401       1.35695238       0.00000000
Si       1.35961227       1.35475080      -1.35681384       0.00000000
Si       1.35752715      -1.35718506       1.35712557       0.00000000
Si      -1.35822762      -1.35796698      -1.35695238       0.00000000
Si       2.71158453       0.00226431      -2.71189585       0.00000000
Si       0.00050499       2.71235083       2.71449359       0.00000000
Si      -2.71169856      -0.00185706      -2.71556732       0.00000000
Si       2.71480995       0.00216657       2.71383549       0.00000000
Si      -2.71406061      -0.00146610       2.71470140       0.00000000
Si      -2.71391400       2.71498981       0.00038100       0.00000000
