10
Lattice="16.28999089631971 0.0 0.0 0.0 16.28999089631971 0.0 0.0 0.0 34.63643526849801" Properties=species:S:1:pos:R:3:initial_magmoms:R:1 pbc="T T T"
Si       1.35677781       1.35645201      -1.35847639       0.00000000
Si      -1.35812988      -1.35905841      -1.35802611       0.00000000
Si      -1.36101321       1.35874890       1.35826857       0.00000000
Si       1.35669636      -1.36122498       1.36155903       0.00000000
Si      -0.00216657       2.72331333       2.69644799       0.00000000
Si      -2.71480995       2.71217097      -0.00090055       0.00000000
Si      -0.00074934       2.71363707      -2.71560195       0.00000000
Si       2.71450044      -0.00174303      -2.71532486       0.00000000
Si       2.71406061       2.71580364      -0.00176646       0.00000000
Si      -2.71489140      -0.00164529      -2.71587904       0.00000000
