10
Lattice="16.28999089631971 0.0 0.0 0.0 16.28999089631971 0.0 0.0 0.0 34.63643526849801" Properties=species:S:1:pos:R:3:initial_magmoms:R:1 pbc="T T T"
Si       0.78552009       1.91694204       1.16181060       0.00000000
Si      -0.27994365       1.04516640      -2.12671295       0.00000000
Si       1.69443693      -1.76044401      -0.33815571       0.00000000
Si      -2.23189290      -1.07569386       0.38671602       0.00000000
Si      -1.33918461      -3.01159746       1.52293027       0.00000000
Si      -1.16027154      -0.75313557      -3.36056737       0.00000000
Si      -0.73500480       3.60565208       0.34276235       0.00000000
Si       0.49482504      -3.75376986       0.07585384       0.00000000
Si      -2.90988270      -1.48281354      -1.94760784       0.00000000
Si      -1.74988809       2.92767694      -1.96374843       0.00000000
