10
Lattice="16.28999089631971 0.0 0.0 0.0 16.28999089631971 0.0 0.0 0.0 34.63643526849801" Properties=species:S:1:pos:R:3:initial_magmoms:R:1 pbc="T T T"
Si       1.22274369       0.62179730      -1.88668232       0.00000000
Si       0.76401729       0.78483658       2.08106210       0.00000000
Si      -2.18727459       0.87128109      -0.39198076       0.00000000
Si       0.64332468      -2.31552576       0.25295003       0.00000000
Si      -2.87497323       0.23690547       1.84376775       0.00000000
Si      -1.60642206      -1.58291559       2.82013477       0.00000000
Si       2.75950971      -1.12778928      -2.11133436       0.00000000
Si      -1.10558601      -3.40001622       1.32498294       0.00000000
Si       2.99921706       1.25391202       2.11434774       0.00000000
Si       1.39849650      -3.09439953      -1.87511374       0.00000000
