10
Lattice="16.28999089631971 0.0 0.0 0.0 16.28999089631971 0.0 0.0 0.0 34.63643526849801" Properties=species:S:1:pos:R:3:initial_magmoms:R:1 pbc="T T T"
Si      -1.32879159      -0.70423299       1.80497492       0.00000000
Si       0.50083605      -1.81710063      -1.49515184       0.00000000
Si       2.08283940       0.69525720       0.99988517       0.00000000
Si      -1.26855117       1.81982106      -0.97636702       0.00000000
Si       2.37043935       2.36775217      -0.73907267       0.00000000
Si       2.24974674      -0.73261017      -2.56718474       0.00000000
Si       1.60642206       1.58291559      -2.82013477       0.00000000
Si      -3.48459390       0.97419087      -0.80883049       0.00000000
Si      -0.76447341       3.67660643       0.50337160       0.00000000
Si      -3.10502061      -2.05156260       0.98457586       0.00000000
