10
Lattice="16.28999089631971 0.0 0.0 0.0 16.28999089631971 0.0 0.0 0.0 34.63643526849801" Properties=species:S:1:pos:R:3:initial_magmoms:R:1 pbc="T T T"
Si       1.74891069       1.08449046      -1.07203291       0.00000000
Si      -1.12122441      -0.28004139      -2.08248220       0.00000000
Si      -0.50083605       1.81710063       1.49515184       0.00000000
Si       0.55457676      -1.94364135       1.32903540       0.00000000
Si       3.52740402       0.71768853       0.50233250       0.00000000
Si      -3.38820597      -0.58002174      -1.57325704       0.00000000
Si       1.10558601       3.40001622      -1.32498294       0.00000000
Si       1.23703002      -1.07605224       3.48941498       0.00000000
Si       1.58200335       2.51235783       2.49503701       0.00000000
Si      -1.82962764       1.11286764       3.30012676       0.00000000
