10
Lattice="16.28999089631971 0.0 0.0 0.0 16.28999089631971 0.0 0.0 0.0 34.63643526849801" Properties=species:S:1:pos:R:3:initial_magmoms:R:1 pbc="T T T"
Si       1.33525872       1.36420605       1.39041813       0.00000000
Si      -1.37243250      -1.36420605       1.38567293       0.00000000
Si      -1.42973583       1.30171761      -1.41879924       0.00000000
Si       1.83402594      -0.86402160      -1.38587036       0.00000000
Si       2.69469180       2.69389359       0.00574619       0.00000000
Si       2.70311373      -2.69118945       0.01579076       0.00000000
Si      -2.72215711       2.69589726       0.03475422       0.00000000
Si      -2.72642071      -2.69609274       0.01042211       0.00000000
Si       2.70040959      -0.00319284       2.74110131       0.00000000
Si      -0.01462842      -2.71485882       2.74501523       0.00000000
