10
Lattice="16.28999089631971 0.0 0.0 0.0 16.28999089631971 0.0 0.0 0.0 34.63643526849801" Properties=species:S:1:pos:R:3:initial_magmoms:R:1 pbc="T T T"
Si       1.33651305       1.35672894      -1.37427061       0.00000000
Si      -1.38666996       1.35716877       1.34818936       0.00000000
Si      -1.37994219      -1.35599589      -1.37385497       0.00000000
Si       1.29026574      -1.42910541       1.50554277       0.00000000
Si      -2.18905020      -0.44499393       2.77659675       0.00000000
Si      -0.58938849      -2.29312701       2.75058477       0.00000000
Si       2.67965680      -2.71573522       0.00762002       0.00000000
Si       2.68653607       2.71990872       0.00949039       0.00000000
Si       2.69263993       0.00348606      -2.73423636       0.00000000
Si      -0.02280600      -2.71198038      -2.73354364       0.00000000
