10
Lattice="16.28999089631971 0.0 0.0 0.0 16.28999089631971 0.0 0.0 0.0 34.63643526849801" Properties=species:S:1:pos:R:3:initial_magmoms:R:1 pbc="T T T"
Si       1.46669851       1.35941679       1.24864419       0.00000000
Si       1.38939106      -1.28662981      -1.49792275       0.00000000
Si      -1.87965423      -0.86402160       1.24504200       0.00000000
Si      -1.29026574       1.42910541      -1.50554277       0.00000000
Si       0.38640924       1.57025826       3.39198264       0.00000000
Si       2.65889357      -2.67216992      -0.03383982       0.00000000
Si      -2.72746728      -2.64889151      -0.11887231       0.00000000
Si      -3.47931594       0.98411148       1.27105398       0.00000000
Si      -2.67693570       2.78627418      -0.15735341       0.00000000
Si       0.04690752      -2.63781101      -2.87714638       0.00000000
