10
Lattice="16.28999089631971 0.0 0.0 0.0 16.28999089631971 0.0 0.0 0.0 34.63643526849801" Properties=species:S:1:pos:R:3:initial_magmoms:R:1 pbc="T T T"
Si       0.02287116       2.15061232       0.97473911       0.00000000
Si      -0.39038985       0.89097178      -2.20107742       0.00000000
Si      -2.02870773      -0.91388596       0.92687153       0.00000000
Si       2.14868262      -1.09255468       0.31328673       0.00000000
Si      -3.54923262       0.77482408       0.10782328       0.00000000
Si      -2.32182999       2.74575118       1.12821324       0.00000000
Si       1.87567362       3.32525164      -0.05413678       0.00000000
Si      -1.67114223      -1.03281925       3.33580231       0.00000000
Si      -1.23820290      -0.89389813      -3.56499173       0.00000000
Si       3.56976521       0.46357756       1.53834350       0.00000000
