10
Lattice="16.28999089631971 0.0 0.0 0.0 16.28999089631971 0.0 0.0 0.0 34.63643526849801" Properties=species:S:1:pos:R:3:initial_magmoms:R:1 pbc="T T T"
Si      -0.84781305      -1.78486991      -1.36391431       0.00000000
Si       0.39038985      -0.89097178       2.20107742       0.00000000
Si       1.87965423       0.86402160      -1.24504200       0.00000000
Si      -1.59966171       1.84813308       0.02601198       0.00000000
Si       0.41326101       1.25964054       3.17581652       0.00000000
Si      -2.14887906      -0.41426122      -2.76883818       0.00000000
Si       0.58938849       2.29312701      -2.75058477       0.00000000
Si      -3.38111982       1.00017342      -1.31698191       0.00000000
Si      -2.70378162      -2.67663338      -0.16057460       0.00000000
Si      -3.15884277      -0.11614770       2.30890070       0.00000000
