10
Lattice="16.28999089631971 0.0 0.0 0.0 16.28999089631971 0.0 0.0 0.0 34.63643526849801" Properties=species:S:1:pos:R:3:initial_magmoms:R:1 pbc="T T T"
Si      -0.54887526      -2.09806145      -0.82971627       0.00000000
Si       1.85231961       1.10368008      -0.92642125       0.00000000
Si      -0.23166009       0.18489150       2.33228031       0.00000000
Si      -1.74118923       1.40335092      -0.74257095       0.00000000
Si      -0.89855640       3.20684940       0.52664729       0.00000000
Si      -2.46203802      -2.26263932       0.54781017       0.00000000
Si       1.49566635       3.12041466       0.27955083       0.00000000
Si      -1.39629735      -1.81455858       2.61571042       0.00000000
Si       1.14513813       1.08537012      -3.19077947       0.00000000
Si      -1.19956302       1.68050898      -3.03730534       0.00000000
