10
Lattice="16.28999089631971 0.0 0.0 0.0 16.28999089631971 0.0 0.0 0.0 34.63643526849801" Properties=species:S:1:pos:R:3:initial_magmoms:R:1 pbc="T T T"
Si      -1.85231961      -1.10368008       0.92642125       0.00000000
Si      -0.70718148      -0.01830996      -2.26435822       0.00000000
Si      -0.35665326       2.01673458       1.20597208       0.00000000
Si       2.16265293      -0.90315018       0.44348517       0.00000000
Si      -3.59350884       0.29967084       0.18385030       0.00000000
Si       0.84875740       1.44207225       3.24256097       0.00000000
Si       1.14562098       1.15632936      -3.29323411       0.00000000
Si       2.83971257      -1.70534471      -1.70075383       0.00000000
Si      -2.75087601       2.10316932       1.45306854       0.00000000
Si      -3.05188263       0.57682890      -2.11088409       0.00000000
