10
Lattice="16.28999089631971 0.0 0.0 0.0 16.28999089631971 0.0 0.0 0.0 34.63643526849801" Properties=species:S:1:pos:R:3:initial_magmoms:R:1 pbc="T T T"
Si      -2.23519977      -0.46907544      -0.03328563       0.00000000
Si       0.93118527       1.83928924      -1.17379481       0.00000000
Si       0.98679933      -2.12904340      -0.47206024       0.00000000
Si      -0.02410920       0.93279961       2.24607017       0.00000000
Si       2.67408399       1.69815268       0.40178287       0.00000000
Si      -3.17728305       1.57315951       0.64551960       0.00000000
Si       1.31704650       2.85342319       1.96998299       0.00000000
Si      -2.52279972      -2.14157041       1.70567221       0.00000000
Si       1.57170807      -1.97715544      -2.77656211       0.00000000
Si       2.69531964      -2.38386787       1.12758978       0.00000000
