10
Lattice="16.28999089631971 0.0 0.0 0.0 16.28999089631971 0.0 0.0 0.0 34.63643526849801" Properties=species:S:1:pos:R:3:initial_magmoms:R:1 pbc="T T T"
Si      -0.16426836       2.20814208      -0.75992381       0.00000000
Si       0.20482999      -1.40634828      -1.86070498       0.00000000
Si      -1.72380780      -0.97775838       1.25044528       0.00000000
Si       1.75256684      -0.05121576       1.57613187       0.00000000
Si       2.54667176      -1.81376118      -1.71845306       0.00000000
Si       0.74970557       0.84001014       3.46014718       0.00000000
Si      -0.57909321      -3.46186935      -0.96687663       0.00000000
Si      -1.41467247      -0.13374090       3.37885542       0.00000000
Si      -1.18488573      -3.29525523       1.26610096       0.00000000
Si       0.93022646       2.24140626      -2.84767075       0.00000000
