10
Lattice="16.28999089631971 0.0 0.0 0.0 16.28999089631971 0.0 0.0 0.0 34.63643526849801" Properties=species:S:1:pos:R:3:initial_magmoms:R:1 pbc="T T T"
Si      -1.73837106      -0.92018952      -1.26703951       0.00000000
Si       1.31632974      -1.38012138       1.42442420       0.00000000
Si       1.19063610       1.38160377      -1.54727766       0.00000000
Si      -1.39263210       1.36495539       1.40613615       0.00000000
Si       2.59568118       2.57812056       0.04156375       0.00000000
Si      -2.69690724      -2.67665877       0.06044061       0.00000000
Si       2.67981903      -0.00992061       2.79168092       0.00000000
Si       2.62311354      -2.85721713       0.07408391       0.00000000
Si      -0.04118112       2.70806589       2.79891994       0.00000000
Si      -0.04008969      -2.72396493       2.80013222       0.00000000
