10
Lattice="16.28999089631971 0.0 0.0 0.0 16.28999089631971 0.0 0.0 0.0 34.63643526849801" Properties=species:S:1:pos:R:3:initial_magmoms:R:1 pbc="T T T"
Si      -1.35612688       1.35324288       1.35996575       0.00000000
Si      -1.35663910      -1.35819504      -1.35632893       0.00000000
Si       1.35860881       1.35710361      -1.35598256       0.00000000
Si       1.35614902      -1.35337320       1.36446849       0.00000000
Si      -2.69263993      -0.00348606       2.73423636       0.00000000
Si      -2.71407757      -0.00096111      -2.71366231       0.00000000
Si       0.00086500       2.71603170      -2.71296958       0.00000000
Si      -2.71394725       2.71524978       0.00034636       0.00000000
Si       0.00129180      -2.71551531      -2.71397404       0.00000000
Si       2.71584274      -0.00091224      -2.71393940       0.00000000
