10
Lattice="16.28999089631971 0.0 0.0 0.0 16.28999089631971 0.0 0.0 0.0 34.63643526849801" Properties=species:S:1:pos:R:3:initial_magmoms:R:1 pbc="T T T"
Si       1.35712374      -1.35666378       1.35674456       0.00000000
Si       1.35696425       1.35664749      -1.35740266       0.00000000
Si      -1.35765747       1.35782037       1.35646747       0.00000000
Si      -1.35798327      -1.35711990      -1.35733338       0.00000000
Si      -0.00026064      -2.71389771       2.71355840       0.00000000
Si       0.00299736      -2.71285515      -2.71480531       0.00000000
Si       2.71455161      -2.71311579       0.00024246       0.00000000
Si       0.00013032       2.71394658       2.71445895       0.00000000
Si       2.71474220       0.00201996       2.71411258       0.00000000
Si      -2.71526607      -2.71376739      -0.00083127       0.00000000
