10
Lattice="16.28999089631971 0.0 0.0 0.0 16.28999089631971 0.0 0.0 0.0 34.63643526849801" Properties=species:S:1:pos:R:3:initial_magmoms:R:1 pbc="T T T"
Si       0.60031908      -1.78567722       1.43006994       0.00000000
Si      -0.37307358      -1.38678399      -1.92263496       0.00000000
Si       1.68402762       1.65794733      -0.51130334       0.00000000
Si      -1.94766498       1.18071549       0.87928104       0.00000000
Si       1.30587156      -0.52483122      -3.37213595       0.00000000
Si       1.56936231       1.76961528      -2.87531064       0.00000000
Si      -1.21583673      -3.25532844       1.67869041       0.00000000
Si      -1.26521172       2.04830460       3.03966062       0.00000000
Si       1.32893820      -1.03607658       3.52574863       0.00000000
Si      -2.55940335      -1.05002082      -2.80891256       0.00000000
