10
Lattice="16.28999089631971 0.0 0.0 0.0 16.28999089631971 0.0 0.0 0.0 34.63643526849801" Properties=species:S:1:pos:R:3:initial_magmoms:R:1 pbc="T T T"
Si       1.29419163      -1.93310172       0.17515655       0.00000000
Si       0.69012585       1.98037530       1.03462554       0.00000000
Si      -2.35313937      -0.43513848       0.04506203       0.00000000
Si       1.27428525      -0.05564664      -2.03565371       0.00000000
Si      -2.26808928      -1.78481385       1.96655398       0.00000000
Si      -0.80479116       3.53036880       0.02244442       0.00000000
Si      -3.03236721       1.09991709       1.73390092       0.00000000
Si       2.13174198      -2.32000551      -2.04285809       0.00000000
Si      -1.47646044       0.09767484       3.47943969       0.00000000
Si      -0.11544723       2.06428509       3.24321907       0.00000000
