10
Lattice="16.28999089631971 0.0 0.0 0.0 16.28999089631971 0.0 0.0 0.0 34.63643526849801" Properties=species:S:1:pos:R:3:initial_magmoms:R:1 pbc="T T T"
Si       2.07953483       1.17589365      -0.04097493       0.00000000
Si      -1.52772507       0.02756268      -1.85079895       0.00000000
Si      -1.27428525       0.05564664       2.03565371       0.00000000
Si       0.85745673      -2.26435887      -0.00720438       0.00000000
Si       0.01990638      -1.87745508       2.21081026       0.00000000
Si       0.17267400      -0.73148616      -3.47562968       0.00000000
Si      -2.72733696      -1.96576317      -1.43678941       0.00000000
Si      -1.11970944      -3.47053563      -0.44144161       0.00000000
Si      -0.58415940       2.03602194       3.07027925       0.00000000
Si       3.00565880       0.50192748      -2.27925190       0.00000000
