10
Lattice="16.28999089631971 0.0 0.0 0.0 16.28999089631971 0.0 0.0 0.0 34.63643526849801" Properties=species:S:1:pos:R:3:initial_magmoms:R:1 pbc="T T T"
Si       1.48192803      -1.44963081      -1.04764884       0.00000000
Si      -1.81141542      -0.40454586      -1.44911999       0.00000000
Si      -0.58490874      -0.15188796       2.30450187       0.00000000
Si       1.43007534       1.84616918      -0.59204092       0.00000000
Si       1.33931071      -0.43202709      -3.20778597       0.00000000
Si       3.42377423      -0.79723260       0.11329584       0.00000000
Si       3.10123223       1.38195956       1.16059832       0.00000000
Si      -0.03473028       3.64983056      -0.63021029       0.00000000
Si      -1.57170807       1.97715544       2.77656211       0.00000000
Si      -3.34818144       1.34504072      -1.22446794       0.00000000
