10
Lattice="16.28999089631971 0.0 0.0 0.0 16.28999089631971 0.0 0.0 0.0 34.63643526849801" Properties=species:S:1:pos:R:3:initial_magmoms:R:1 pbc="T T T"
Si       2.01916179       0.06263505      -1.27576453       0.00000000
Si      -0.08019567       1.46852721       1.91068538       0.00000000
Si      -1.72761640       1.19555568      -1.23281533       0.00000000
Si       0.06447582      -2.26624851       1.01204257       0.00000000
Si      -0.67774545      -1.73003058       3.17522770       0.00000000
Si      -3.49387010       1.36086660       0.27885810       0.00000000
Si       0.71711838       0.14392215       3.68826287       0.00000000
Si      -2.29419075       2.32513686       2.04601001       0.00000000
Si       1.24260120       3.35837898       1.56283147       0.00000000
Si       3.81502026       1.26381078      -0.28325693       0.00000000
