10
Lattice="16.28999089631971 0.0 0.0 0.0 16.28999089631971 0.0 0.0 0.0 34.63643526849801" Properties=species:S:1:pos:R:3:initial_magmoms:R:1 pbc="T T T"
Si      -1.14110961      -0.58210686      -1.88062094       0.00000000
Si      -1.76625369       0.16531092       1.51167343       0.00000000
Si       0.59019973       2.22195600      -0.75265016       0.00000000
Si       1.72761640      -1.19555568       1.23281533       0.00000000
Si      -0.56657434       1.12958118       3.27882534       0.00000000
Si       1.64742073       0.27297153       3.14350071       0.00000000
Si      -0.99510723      -2.80391625      -2.27000396       0.00000000
Si      -1.60538994       3.27762945      -0.94536739       0.00000000
Si      -2.49738147      -1.94351103       2.22920222       0.00000000
Si       3.74677819      -1.13292063      -0.04294920       0.00000000
