10
Lattice="16.28999089631971 0.0 0.0 0.0 16.28999089631971 0.0 0.0 0.0 34.63643526849801" Properties=species:S:1:pos:R:3:initial_magmoms:R:1 pbc="T T T"
Si      -0.79731405       1.32460506      -1.77757749       0.00000000
Si      -0.20197971       0.91015488       2.16879624       0.00000000
Si       2.31775749      -0.56254257      -0.17754647       0.00000000
Si      -1.39486383      -1.87395273      -0.51303517       0.00000000
Si      -2.18896875      -0.11140731       2.78154976       0.00000000
Si      -0.65264256      -2.41017066      -2.67622030       0.00000000
Si       1.53860679      -0.09736533       3.36933040       0.00000000
Si      -0.95602752      -3.37325175       1.27940136       0.00000000
Si      -0.71711838      -0.14392215      -3.68826287       0.00000000
Si       3.36973311       0.15568353       1.90431228       0.00000000
