10
Lattice="16.28999089631971 0.0 0.0 0.0 16.28999089631971 0.0 0.0 0.0 34.63643526849801" Properties=species:S:1:pos:R:3:initial_magmoms:R:1 pbc="T T T"
Si      -1.35418118       1.35650088      -1.35982721       0.00000000
Si       1.35720135       1.35654975       1.36027748       0.00000000
Si       1.36135530      -1.36083402      -1.35979257       0.00000000
Si      -1.36134064      -1.35824391       1.38299900       0.00000000
Si      -2.71290679       2.71208952       0.00006927       0.00000000
Si      -2.71179965      -0.00218286      -2.71719523       0.00000000
Si       0.00324171       2.71231758      -2.71712596       0.00000000
Si      -2.71136366      -2.72142369      -0.00076200       0.00000000
Si       2.71886616       2.71467963      -0.00301337       0.00000000
Si       0.00337203      -2.71756296      -2.71671032       0.00000000
