10
Lattice="16.28999089631971 0.0 0.0 0.0 16.28999089631971 0.0 0.0 0.0 34.63643526849801" Properties=species:S:1:pos:R:3:initial_magmoms:R:1 pbc="T T T"
Si      -1.74728888       0.23441310      -1.45653219       0.00000000
Si       1.89252333       1.14595263      -0.72061144       0.00000000
Si      -0.74791367       1.02156219       1.96399089       0.00000000
Si       0.12907707      -2.30053896       0.54964590       0.00000000
Si       3.09462759       0.73932165       1.25418602       0.00000000
Si       0.09035900      -0.41585112       3.59983600       0.00000000
Si      -1.07060228      -3.26480922      -1.21750602       0.00000000
Si      -0.96541775      -2.33380314       2.63739284       0.00000000
Si       3.09627288      -0.32218362      -2.09841497       0.00000000
Si       0.13641572       3.18671496       2.01300147       0.00000000
