10
Lattice="10.86 0.0 0.0 0.0 10.86 0.0 0.0 0.0 10.86" Properties=species:S:1:pos:R:3:initial_magmoms:R:1 pbc="T T T"
Si      -1.22449758      -1.42809000       1.35471984       0.00000000
Si       1.49050242       1.28691000       1.35471984       0.00000000
Si      -1.89689448       1.06833078      -1.03956264       0.00000000
Si       1.49050242      -1.42809000      -1.36028016       0.00000000
Si      -2.58199758      -0.07059000       2.71221984       0.00000000
Si      -2.44547652      -0.09553542      -2.87245914       0.00000000
Si       0.13300242       2.64441000       2.71221984       0.00000000
Si       2.99766408       2.32004352       0.10427772       0.00000000
Si      -2.58199758      -2.78559000      -0.00278016       0.00000000
Si       2.90117298      -0.10521168      -2.56724970       0.00000000
