10
Lattice="10.86 0.0 0.0 0.0 10.86 0.0 0.0 0.0 10.86" Properties=species:S:1:pos:R:3:initial_magmoms:R:1 pbc="T T T"
Si       1.49521566      -1.03957350      -1.40003862       0.00000000
Si      -1.21978434       1.67542650      -1.40003862       0.00000000
Si       1.49521566       1.67542650       1.31496138       0.00000000
Si      -2.60666064      -2.44835442      -0.08952984       0.00000000
Si       0.13771566      -2.39707350      -2.75753862       0.00000000
Si       2.85271566      -2.39707350      -0.04253862       0.00000000
Si       0.19088622      -2.43169518       2.82299184       0.00000000
Si      -2.57728434       0.31792650      -2.75753862       0.00000000
Si       2.85271566       0.31792650       2.67246138       0.00000000
Si       2.85271566       0.31792650      -2.75753862       0.00000000
