10
Lattice="10.86 0.0 0.0 0.0 10.86 0.0 0.0 0.0 10.86" Properties=species:S:1:pos:R:3:initial_magmoms:R:1 pbc="T T T"
Si       1.20783834      -1.03313352      -1.46455788       0.00000000
Si      -1.50716166      -1.03313352       1.25044212       0.00000000
Si       1.20783834       1.68186648       1.25044212       0.00000000
Si       2.56533834      -2.39063352      -0.10705788       0.00000000
Si      -0.14966166      -2.39063352       2.60794212       0.00000000
Si      -0.09649110      -2.42525520      -2.67152742       0.00000000
Si       2.56533834       0.32436648       2.60794212       0.00000000
Si      -2.99766408      -2.32004352      -0.10427772       0.00000000
Si       2.56533834       0.32436648      -2.82205788       0.00000000
Si      -2.86466166       0.32436648       2.60794212       0.00000000
