10
Lattice="10.86 0.0 0.0 0.0 10.86 0.0 0.0 0.0 10.86" Properties=species:S:1:pos:R:3:initial_magmoms:R:1 pbc="T T T"
Si       1.38687630      -1.30621908      -1.31050878       0.00000000
Si      -1.32812370      -1.30621908       1.40449122       0.00000000
Si      -1.32812370       1.40878092      -1.31050878       0.00000000
Si       2.60666064       2.44835442       0.08952984       0.00000000
Si      -2.54910264       0.02633550       2.60731224       0.00000000
Si       0.02937630      -2.66371908      -2.66800878       0.00000000
Si      -2.68562370      -2.66371908       0.04699122       0.00000000
Si      -2.68562370       0.05128092      -2.66800878       0.00000000
Si       2.74437630      -2.66371908       0.04699122       0.00000000
Si       2.74437630       0.05128092      -2.66800878       0.00000000
