10
Lattice="16.28999089631971 0.0 0.0 0.0 16.28999089631971 0.0 0.0 0.0 34.54679606040008" Properties=species:S:1:pos:R:3:initial_magmoms:R:1 pbc="T T T"
Si      -1.33867473      -1.34079081       1.37917451       0.00000000
Si       1.37966526       1.36675284       1.37364702       0.00000000
Si       1.18276803      -1.56474573      -1.34880786       0.00000000
Si      -1.30104646       1.40310072      -1.49201132       0.00000000
Si       2.23751295       0.08214674      -2.63789394       0.00000000
Si       0.65630781       2.10201014      -2.73574646       0.00000000
Si      -2.70132902      -2.69721024       0.02940970       0.00000000
Si      -2.68925813       2.72940320      -0.01242649       0.00000000
Si      -2.69629541       0.00973164       2.73575885       0.00000000
Si       0.01857060      -2.70454074       2.73406606       0.00000000
