10
Lattice="16.28999089631971 0.0 0.0 0.0 16.28999089631971 0.0 0.0 0.0 34.54679606040008" Properties=species:S:1:pos:R:3:initial_magmoms:R:1 pbc="T T T"
Si      -1.85445360      -1.29494097      -0.61064951       0.00000000
Si      -0.17174547       1.76630841      -1.57409110       0.00000000
Si      -0.69553413       0.75712662       2.25248691       0.00000000
Si       2.19895452      -1.24450713       0.03544503       0.00000000
Si       2.23845777       1.95387410      -1.56960001       0.00000000
Si       0.59430807      -0.73419030       3.53299917       0.00000000
Si      -1.93282479      -2.91990105       1.06259095       0.00000000
Si       0.00478926      -2.77021224       2.42940115       0.00000000
Si      -3.80308946       0.09932013      -0.53205550       0.00000000
Si       3.58536384       0.04264722       1.41818132       0.00000000
