10
Lattice="16.28999089631971 0.0 0.0 0.0 16.28999089631971 0.0 0.0 0.0 34.54679606040008" Properties=species:S:1:pos:R:3:initial_magmoms:R:1 pbc="T T T"
Si       1.79853003       1.04497581      -1.10707032       0.00000000
Si      -1.21498965       1.45395255       1.41778057       0.00000000
Si       1.48760280      -1.27373595       1.37736426       0.00000000
Si      -1.71957240      -1.18545213      -1.24348429       0.00000000
Si       0.74947032       1.64368218      -3.13790939       0.00000000
Si      -3.30077754       0.83441127      -1.34133680       0.00000000
Si      -2.61816138       2.70701193       0.06407743       0.00000000
Si      -2.57742009       0.09915397       2.76805667       0.00000000
Si       0.13760163      -2.61462875       2.77061314       0.00000000
Si       0.13765050       2.81433045       2.77209865       0.00000000
