10
Lattice="16.28999089631971 0.0 0.0 0.0 16.28999089631971 0.0 0.0 0.0 34.54679606040008" Properties=species:S:1:pos:R:3:initial_magmoms:R:1 pbc="T T T"
Si       1.35549090       1.35692442       1.35775894       0.00000000
Si       1.35749457      -1.35763466      -1.35727528       0.00000000
Si      -1.35767376       1.35736425      -1.35737892       0.00000000
Si      -1.35821133      -1.35948195       1.35686072       0.00000000
Si       2.71352304       0.00022806      -2.71327233       0.00000000
Si      -0.00057015       2.71265967      -2.71437783       0.00000000
Si       2.71427238       2.71536381       0.00017273       0.00000000
Si      -2.71482624       2.71533123       0.00058730       0.00000000
Si       0.00053757       2.71518462       2.71499967       0.00000000
Si      -2.71539639      -2.71482998       0.00027637       0.00000000
