10
Lattice="16.28999089631971 0.0 0.0 0.0 16.28999089631971 0.0 0.0 0.0 34.54679606040008" Properties=species:S:1:pos:R:3:initial_magmoms:R:1 pbc="T T T"
Si      -1.35718506      -1.35534803      -1.35658435       0.00000000
Si       1.35653346      -1.35292427       1.36307915       0.00000000
Si       1.35821133       1.35948195      -1.35686072       0.00000000
Si      -1.35480672       1.35987291       1.36325188       0.00000000
Si       0.00105885      -2.71300895      -2.71392872       0.00000000
Si      -2.71404269      -2.71309040       0.00041456       0.00000000
Si      -2.71467311       0.00187987      -2.71385963       0.00000000
Si       2.71570590       0.00184729      -2.71413600       0.00000000
Si       2.71370223       2.71640637       0.00089822       0.00000000
Si       2.71658556      -2.71426328       0.00044911       0.00000000
