10
Lattice="16.28999089631971 0.0 0.0 0.0 16.28999089631971 0.0 0.0 0.0 34.54679606040008" Properties=species:S:1:pos:R:3:initial_magmoms:R:1 pbc="T T T"
Si      -1.34402274      -1.35094599       1.36474776       0.00000000
Si      -1.34480466       1.28684484      -1.44331758       0.00000000
Si       1.37401263      -1.30015377      -1.41355204       0.00000000
Si       1.37020077       1.36596537       1.36032577       0.00000000
Si       0.41239764       1.99793592      -2.95147750       0.00000000
Si       2.35431225       0.38488383      -2.95987238       0.00000000
Si      -2.69666289      -2.71132389       0.01042968       0.00000000
Si      -2.69241120       2.72868903      -0.02545064       0.00000000
Si      -2.70456354       0.00548973       2.72181576       0.00000000
Si       2.72692971      -2.70094716      -0.00446345       0.00000000
