10
Lattice="16.28999089631971 0.0 0.0 0.0 16.28999089631971 0.0 0.0 0.0 34.54679606040008" Properties=species:S:1:pos:R:3:initial_magmoms:R:1 pbc="T T T"
Si      -1.22225499       1.40351382      -1.41213562       0.00000000
Si       1.67135400       1.22712570       1.17279529       0.00000000
Si      -1.24743933      -1.24299216       1.61720552       0.00000000
Si       1.49305995      -1.31939226      -1.40194431       0.00000000
Si       0.22719663       2.46474216       2.62355425       0.00000000
Si      -2.63495637      -2.67911856       0.13663265       0.00000000
Si       0.51137568      -2.37667842       2.87256770       0.00000000
Si      -2.59952562       2.73443940       0.01685885       0.00000000
Si      -2.56854204       0.03481173      -2.76986002       0.00000000
Si       0.14905350      -2.67998193      -2.77214011       0.00000000
