10
Lattice="16.28999089631971 0.0 0.0 0.0 16.28999089631971 0.0 0.0 0.0 34.54679606040008" Properties=species:S:1:pos:R:3:initial_magmoms:R:1 pbc="T T T"
Si       1.43164665       1.22543154       1.40222069       0.00000000
Si      -1.92878487      -0.79210125       1.13983763       0.00000000
Si      -0.51644187       1.73151297      -1.55857958       0.00000000
Si       1.23312042      -1.90241136      -0.78441999       0.00000000
Si      -1.06231977      -2.31679638       2.69226787       0.00000000
Si       2.53625526       2.73326652      -0.09241273       0.00000000
Si       0.20264760       0.68986521      -3.67595389       0.00000000
Si       0.07586253       2.21296392       3.10423864       0.00000000
Si      -0.32721723      -3.08109060      -2.26692748       0.00000000
Si       0.52559685       3.76745346      -0.78711464       0.00000000
