10
Lattice="16.28999089631971 0.0 0.0 0.0 16.28999089631971 0.0 0.0 0.0 34.54679606040008" Properties=species:S:1:pos:R:3:initial_magmoms:R:1 pbc="T T T"
Si      -0.77121747       2.17842912       0.37694030       0.00000000
Si       2.28020904      -0.08785197      -0.57603360       0.00000000
Si      -1.17605655      -0.90109764      -1.83802876       0.00000000
Si      -0.82099971      -1.07222409       1.98336722       0.00000000
Si      -3.00122073      -1.67956416      -0.63700873       0.00000000
Si      -1.78800669      -2.94205545       1.01032162       0.00000000
Si      -2.92877910       1.68686208       1.34411295       0.00000000
Si       3.42523314       0.03539817       1.40415531       0.00000000
Si       0.49088286       3.14934570       2.07868188       0.00000000
Si       2.76105726      -2.02688325      -1.72640800       0.00000000
