10
Lattice="16.28999089631971 0.0 0.0 0.0 16.28999089631971 0.0 0.0 0.0 34.54679606040008" Properties=species:S:1:pos:R:3:initial_magmoms:R:1 pbc="T T T"
Si      -1.35086454      -1.35505107       1.40244870       0.00000000
Si       1.36443411       1.36052451       1.40521244       0.00000000
Si       1.45644003      -1.37769417      -1.50454836       0.00000000
Si      -1.39795893       1.42511436      -1.58231324       0.00000000
Si      -2.69690724      -2.70769122       0.01677593       0.00000000
Si      -2.69884575       2.71476108       0.02479425       0.00000000
Si       2.70915732       2.71150308       0.03617052       0.00000000
Si       2.73344571      -2.70972747       0.01873128       0.00000000
Si      -2.70861975       0.00105885       2.76421507       0.00000000
Si       0.00607617      -2.71326240       2.76400779       0.00000000
