10
Lattice="16.28999089631971 0.0 0.0 0.0 16.28999089631971 0.0 0.0 0.0 34.54679606040008" Properties=species:S:1:pos:R:3:initial_magmoms:R:1 pbc="T T T"
Si       1.35296595      -1.35329175       1.36145545       0.00000000
Si      -1.36309833       1.36184400       1.36059178       0.00000000
Si       1.36273995       1.36041048      -1.37796537       0.00000000
Si      -1.35751086      -1.38588804      -1.36060560       0.00000000
Si      -0.19890090       2.50163901      -2.72228214       0.00000000
Si      -2.77117335      -0.03981276      -2.61861406       0.00000000
Si       2.71072116      -2.70940167      -0.00031092       0.00000000
Si      -2.71507385      -2.71194291       0.00321285       0.00000000
Si      -0.00420282      -2.71067229       2.71835071       0.00000000
Si       2.71086777       0.00454491       2.71845435       0.00000000
