10
Lattice="16.28999089631971 0.0 0.0 0.0 16.28999089631971 0.0 0.0 0.0 34.54679606040008" Properties=species:S:1:pos:R:3:initial_magmoms:R:1 pbc="T T T"
Si       1.35716877       1.35738054      -1.35689527       0.00000000
Si      -1.35742941       1.35728280       1.35741347       0.00000000
Si       1.35731538      -1.35757602       1.35765530       0.00000000
Si      -1.36042677      -1.35713619      -1.35803531       0.00000000
Si      -2.71087103      -0.00127062      -2.71513786       0.00000000
Si      -2.71379183       0.00078192       2.71379053       0.00000000
Si       0.00055386      -2.71420722       2.71472330       0.00000000
Si       0.00420282       2.71067229      -2.71835071       0.00000000
Si      -0.00087966       2.71433754       2.71479239       0.00000000
Si       2.71498914       0.00135207       2.71420510       0.00000000
