10
Lattice="16.28999089631971 0.0 0.0 0.0 16.28999089631971 0.0 0.0 0.0 34.54679606040008" Properties=species:S:1:pos:R:3:initial_magmoms:R:1 pbc="T T T"
Si      -1.35239580       1.35845568      -1.36145545       0.00000000
Si       1.36233270      -1.35837423      -1.36021176       0.00000000
Si      -1.36554183      -1.35435060       1.36684475       0.00000000
Si       1.38364002       1.36803420       1.35886444       0.00000000
Si       0.13937724      -2.63616183       2.67495991       0.00000000
Si      -2.70469386       2.71278999      -0.00259101       0.00000000
Si      -2.70954828      -2.71494027      -0.00335104       0.00000000
Si      -2.71006956      -0.00047241      -2.71800525       0.00000000
Si       2.71884987       2.71391400      -0.00480201       0.00000000
Si       0.00418653      -2.71476108      -2.71817798       0.00000000
