10
Lattice="16.28999089631971 0.0 0.0 0.0 16.28999089631971 0.0 0.0 0.0 34.54679606040008" Properties=species:S:1:pos:R:3:initial_magmoms:R:1 pbc="T T T"
Si       1.35229806      -1.35433431      -1.35886444       0.00000000
Si       1.36340784       1.34407161       1.36446102       0.00000000
Si      -1.37616291      -1.34423451       1.35924445       0.00000000
Si      -1.36357074       1.35865116      -1.35827714       0.00000000
Si      -0.07683993       2.58566283       2.74388081       0.00000000
Si       2.70469386      -2.71278999       0.00259101       0.00000000
Si       2.70953199       0.00249237      -2.71548333       0.00000000
Si       2.70909216       2.71955034      -0.00373106       0.00000000
Si      -0.00537570      -2.71326240      -2.71541423       0.00000000
Si      -0.00524538       2.71713942      -2.71562152       0.00000000
