10
Lattice="16.28999089631971 0.0 0.0 0.0 16.28999089631971 0.0 0.0 0.0 34.54679606040008" Properties=species:S:1:pos:R:3:initial_magmoms:R:1 pbc="T T T"
Si       1.83409110      -1.39792635       0.36343250       0.00000000
Si      -2.09684880      -1.04659992      -0.33766057       0.00000000
Si       0.90815121       1.23575940      -1.81622972       0.00000000
Si       0.18239913       1.19244429       2.11986168       0.00000000
Si       2.06415477       2.84780151      -0.59886904       0.00000000
Si       0.62716500       3.33539379       1.26444799       0.00000000
Si       1.10074788      -2.84815989       2.16643079       0.00000000
Si       3.55133403       0.04311963       1.28382875       0.00000000
Si      -3.39411924      -0.60310467       1.57011821       0.00000000
Si      -3.25887966       0.05250267      -2.09381339       0.00000000
