10
Lattice="16.28999089631971 0.0 0.0 0.0 16.28999089631971 0.0 0.0 0.0 34.54679606040008" Properties=species:S:1:pos:R:3:initial_magmoms:R:1 pbc="T T T"
Si       0.44476587       2.14294950      -0.85541370       0.00000000
Si      -1.74939939       0.61724439       1.53854242       0.00000000
Si       2.05398981      -0.73725282       1.06677111       0.00000000
Si      -0.18239913      -1.19244429      -2.11986168       0.00000000
Si       1.65169197      -2.59037064      -1.75642919       0.00000000
Si       3.36893490      -1.14932466      -0.83603293       0.00000000
Si       1.95848154       0.65821374       3.02222450       0.00000000
Si      -1.73885976      -1.16888895       3.01092769       0.00000000
Si       1.88175564       1.65535722      -2.71873073       0.00000000
Si      -3.68701344       0.46755558       0.17173222       0.00000000
