10
Lattice="16.28999089631971 0.0 0.0 0.0 16.28999089631971 0.0 0.0 0.0 34.54679606040008" Properties=species:S:1:pos:R:3:initial_magmoms:R:1 pbc="T T T"
Si       1.35653346       1.35666867      -1.35710255       0.00000000
Si      -1.35703845       1.35331293       1.36100634       0.00000000
Si       1.35708732      -1.35764078       1.35924445       0.00000000
Si      -1.35912357      -1.35851553      -1.35696436       0.00000000
Si       0.02234988       2.68951647       2.72114901       0.00000000
Si      -0.01866834      -2.71877072       2.70705391       0.00000000
Si       2.71272483      -2.71499144      -0.00031092       0.00000000
Si       2.71370223      -0.00066626      -2.71489603       0.00000000
Si      -0.00172674       2.71461936      -2.71499967       0.00000000
Si       2.71533123       2.71445646       0.00003455       0.00000000
