10
Lattice="16.28999089631971 0.0 0.0 0.0 16.28999089631971 0.0 0.0 0.0 34.54679606040008" Properties=species:S:1:pos:R:3:initial_magmoms:R:1 pbc="T T T"
Si       0.84641211       2.00878506       1.09758687       0.00000000
Si      -1.47445677       0.94172490      -1.72184782       0.00000000
Si       2.29447908      -0.93173913       0.19771142       0.00000000
Si      -0.90660366      -2.05576379       1.35026228       0.00000000
Si      -1.58198706      -0.10836108       2.55819168       0.00000000
Si       1.09055034      -3.10299088       0.36460709       0.00000000
Si      -3.30512697       0.61760277       1.10587811       0.00000000
Si      -2.67406866       2.42642808      -0.24656062       0.00000000
Si       1.54882062      -2.84679316      -1.94598756       0.00000000
Si      -0.18746532       2.20190301      -3.21295747       0.00000000
