10
Lattice="16.28999089631971 0.0 0.0 0.0 16.28999089631971 0.0 0.0 0.0 34.54679606040008" Properties=species:S:1:pos:R:3:initial_magmoms:R:1 pbc="T T T"
Si      -0.28522161      -0.01436778       2.33660840       0.00000000
Si      -1.94209380       0.22783194      -1.34017461       0.00000000
Si       1.24467003      -1.60508791      -1.35029683       0.00000000
Si       1.61184663       1.77355746       0.64464357       0.00000000
Si       1.29598353      -2.03423118       2.43446092       0.00000000
Si      -2.65497352       2.28612231      -0.16499559       0.00000000
Si      -0.91295676       0.79272027      -3.44086281       0.00000000
Si       1.80406863      -3.21469208       0.29789719       0.00000000
Si       0.41749641      -1.15500824      -3.55593825       0.00000000
Si       1.21287195       3.48231330      -0.99018082       0.00000000
