10
Lattice="16.28999089631971 0.0 0.0 0.0 16.28999089631971 0.0 0.0 0.0 34.54679606040008" Properties=species:S:1:pos:R:3:initial_magmoms:R:1 pbc="T T T"
Si      -0.74707569       2.19885678       0.58432484       0.00000000
Si      -1.08168858      -1.30601491       1.69396854       0.00000000
Si       2.36517768      -0.40692420       0.12668317       0.00000000
Si      -0.58899753      -0.21950775      -2.33087363       0.00000000
Si      -2.03706450       2.72101644      -1.43099819       0.00000000
Si      -1.79292627      -2.39075950      -2.16397797       0.00000000
Si      -2.59559973      -2.62709549       0.49315579       0.00000000
Si      -2.90512602       1.78254954       1.51211411       0.00000000
Si       2.54907549      -2.68249778       0.59537982       0.00000000
Si      -2.37337155       0.09935271       3.06886270       0.00000000
