10
Lattice="16.28999089631971 0.0 0.0 0.0 16.28999089631971 0.0 0.0 0.0 34.54679606040008" Properties=species:S:1:pos:R:3:initial_magmoms:R:1 pbc="T T T"
Si       1.35597960      -1.35910728       1.36007357       0.00000000
Si      -1.35962856       1.35715248       1.36145545       0.00000000
Si      -1.37020077      -1.36596537      -1.36032577       0.00000000
Si       1.36774098       1.36068741      -1.38382106       0.00000000
Si       2.70730026       2.71353933       0.00424926       0.00000000
Si      -2.71422351      -2.71691136       0.00442199       0.00000000
Si       2.71301805      -0.00027693       2.71873073       0.00000000
Si       2.71463076      -2.71712313       0.00200372       0.00000000
Si      -2.71656927       2.71536381      -0.00010364       0.00000000
Si      -0.00184077       2.71474479       2.71862709       0.00000000
