10
Lattice="16.28999089631971 0.0 0.0 0.0 16.28999089631971 0.0 0.0 0.0 34.54679606040008" Properties=species:S:1:pos:R:3:initial_magmoms:R:1 pbc="T T T"
Si      -1.35814617      -1.35638685      -1.35796622       0.00000000
Si       1.35772263       1.35830907      -1.35803531       0.00000000
Si       1.36026387      -1.35868374       1.35838078       0.00000000
Si      -1.36233270       1.35837423       1.36021176       0.00000000
Si       2.71327869       2.71559187      -0.00051820       0.00000000
Si      -0.00004887      -2.71389771      -2.71572516       0.00000000
Si       2.71479366       0.00110772      -2.71527605       0.00000000
Si      -2.71479366       0.00071676      -2.71548333       0.00000000
Si       2.71700910      -2.71406061      -0.00069094       0.00000000
Si      -0.00006516       2.71612944      -2.71537969       0.00000000
