10
Lattice="16.28999089631971 0.0 0.0 0.0 16.28999089631971 0.0 0.0 0.0 34.54679606040008" Properties=species:S:1:pos:R:3:initial_magmoms:R:1 pbc="T T T"
Si      -1.24698321       1.46121300       1.31474815       0.00000000
Si      -1.37938833      -1.33620354      -1.36014267       0.00000000
Si       1.33623612       1.38031686      -1.36204274       0.00000000
Si       1.27532781      -1.49584554       1.48330206       0.00000000
Si      -2.53397466       0.20103489       2.80585780       0.00000000
Si       2.69074962      -2.68506767      -0.00338559       0.00000000
Si      -0.02234988      -2.68951647      -2.72114901       0.00000000
Si       2.69298135       0.02493999      -2.72111446       0.00000000
Si      -2.74092282      -2.68624544       0.02414822       0.00000000
Si       2.69151525       2.73846303       0.00874034       0.00000000
