10
Lattice="16.28999089631971 0.0 0.0 0.0 16.28999089631971 0.0 0.0 0.0 34.54679606040008" Properties=species:S:1:pos:R:3:initial_magmoms:R:1 pbc="T T T"
Si       1.14502410       0.12325014       1.98018891       0.00000000
Si       0.48084822      -1.93903128      -1.15037440       0.00000000
Si       0.72858654       1.89589536      -1.16820056       0.00000000
Si      -2.28020904       0.08785197       0.57603360       0.00000000
Si       0.40715226       2.36201742       2.45665859       0.00000000
Si       3.43502343       0.12259854       1.19317791       0.00000000
Si       1.04738184       3.53597256       0.53215914       0.00000000
Si      -3.45626559      -0.81324567      -1.26199517       0.00000000
Si      -0.40731516      -3.78014826       0.04487631       0.00000000
Si       0.58753143      -1.77583806       3.35456487       0.00000000
