10
Lattice="16.28999089631971 0.0 0.0 0.0 16.28999089631971 0.0 0.0 0.0 34.54679606040008" Properties=species:S:1:pos:R:3:initial_magmoms:R:1 pbc="T T T"
Si       1.34631148       1.33682256      -1.36504832       0.00000000
Si      -1.35803638       1.35467640       1.35637706       0.00000000
Si       1.35515695      -1.36018242       1.35530611       0.00000000
Si      -1.35131970      -1.35594702      -1.39135917       0.00000000
Si       2.67686239      -0.11073942      -2.70926490       0.00000000
Si      -2.71055730       2.71044423      -0.00494019       0.00000000
Si       0.00657953       2.51177139      -2.89923784       0.00000000
Si       0.00031928       2.71244790       2.71303050       0.00000000
Si      -2.71445061      -0.00224802       2.71320324       0.00000000
Si       2.71502986      -0.00228060       2.71282322       0.00000000
