10
Lattice="16.28999089631971 0.0 0.0 0.0 16.28999089631971 0.0 0.0 0.0 34.54679606040008" Properties=species:S:1:pos:R:3:initial_magmoms:R:1 pbc="T T T"
Si       0.85856445       0.45185202       2.10593932       0.00000000
Si       0.64022958       1.17395514      -1.92449944       0.00000000
Si      -2.19647844       0.87518025       0.19805689       0.00000000
Si       0.73787184      -2.23876728      -0.47646968       0.00000000
Si      -0.40715226      -2.36201742      -2.45665859       0.00000000
Si       0.32143428      -0.46612206      -3.62485915       0.00000000
Si       3.17456262       0.39517911       1.94909678       0.00000000
Si      -3.45857877      -0.09573633      -1.50368469       0.00000000
Si      -1.00799262       2.79554319      -2.38628672       0.00000000
Si      -0.58533228       1.94631291       3.22705257       0.00000000
