10
Lattice="16.28999089631971 0.0 0.0 0.0 16.28999089631971 0.0 0.0 0.0 34.54679606040008" Properties=species:S:1:pos:R:3:initial_magmoms:R:1 pbc="T T T"
Si      -1.75720230      -0.71109108       1.50815992       0.00000000
Si       1.94191461      -1.61305209      -0.00839488       0.00000000
Si       1.04853843       2.06075016       1.40470257       0.00000000
Si      -1.62597006      -0.88273881      -2.36642231       0.00000000
Si      -0.41239764      -1.99793592       2.95147750       0.00000000
Si       0.88153335       1.66446333      -3.08976353       0.00000000
Si       0.96161499      -3.29808969       1.53792546       0.00000000
Si       2.32554411       0.72871686       2.92798221       0.00000000
Si      -0.12764844      -2.67455736      -2.77860036       0.00000000
Si      -3.48087978      -1.80892305       0.29060923       0.00000000
