10
Lattice="16.28999089631971 0.0 0.0 0.0 16.28999089631971 0.0 0.0 0.0 34.54679606040008" Properties=species:S:1:pos:R:3:initial_magmoms:R:1 pbc="T T T"
Si      -1.33520985      -1.34587980       1.36366644       0.00000000
Si       1.35676152      -1.35669636      -1.35592796       0.00000000
Si      -1.35685926       1.35843939      -1.35554794       0.00000000
Si       1.33543791       1.36563957       1.36995396       0.00000000
Si       0.16182486      -2.55656889       2.73413861       0.00000000
Si      -2.56937283       0.07732863       2.77915311       0.00000000
Si      -2.71401174       0.00136836      -2.71327233       0.00000000
Si       0.00120546      -2.71397916      -2.71344507       0.00000000
Si       2.71590138       0.00092853      -2.71330688       0.00000000
Si       0.00073305       2.71598283      -2.71365235       0.00000000
