10
Lattice="16.28999089631971 0.0 0.0 0.0 16.28999089631971 0.0 0.0 0.0 34.54679606040008" Properties=species:S:1:pos:R:3:initial_magmoms:R:1 pbc="T T T"
Si      -1.46909736      -1.23551505       1.25643313       0.00000000
Si       1.61867214       1.05521733       1.35547885       0.00000000
Si       1.19720097      -1.51625691      -1.36038450       0.00000000
Si      -1.49703471       1.21068909      -1.37047217       0.00000000
Si       0.02368566      -1.96685460       2.94984892       0.00000000
Si       2.55564036      -0.15697044      -2.72919841       0.00000000
Si      -0.16182486       2.55656889      -2.73413861       0.00000000
Si       2.62772361       2.67942807      -0.00549294       0.00000000
Si      -2.73119769       2.63389752       0.04501450       0.00000000
Si      -2.43807543       0.25391223       2.91502573       0.00000000
