10
Lattice="16.28999089631971 0.0 0.0 0.0 16.28999089631971 0.0 0.0 0.0 34.54679606040008" Properties=species:S:1:pos:R:3:initial_magmoms:R:1 pbc="T T T"
Si       1.20645369      -1.38872250       1.42553979       0.00000000
Si      -1.34094393      -1.35198855      -1.35243873       0.00000000
Si       1.37575566       1.36112994      -1.34780945       0.00000000
Si      -1.47299067       1.14091902       1.44606060       0.00000000
Si       0.53032095       1.82080402       2.59581316       0.00000000
Si       2.42445699       0.34850826       2.51158802       0.00000000
Si      -2.69705385       0.00179190      -2.70715755       0.00000000
Si       2.70894555      -2.70477531       0.01903530       0.00000000
Si      -2.68662825      -2.72746728       0.01575335       0.00000000
Si       0.01664838      -2.71197549      -2.70646661       0.00000000
