10
Lattice="16.28999089631971 0.0 0.0 0.0 16.28999089631971 0.0 0.0 0.0 34.54679606040008" Properties=species:S:1:pos:R:3:initial_magmoms:R:1 pbc="T T T"
Si      -1.35826020       1.35706939      -1.36110998       0.00000000
Si       1.35929529      -1.35803934      -1.36021176       0.00000000
Si      -1.34604270      -1.34616393       1.39064751       0.00000000
Si       1.35412484       1.34804310       1.39030204       0.00000000
Si       2.71434473      -2.71297638       0.00252192       0.00000000
Si      -2.71368594       2.71575476      -0.00666754       0.00000000
Si      -2.71365336      -0.00016826      -2.71714158       0.00000000
Si      -2.71731861      -2.71362798       0.00597660       0.00000000
Si       0.00120980       2.71427237      -2.71676156       0.00000000
Si       0.00154479      -2.71509408      -2.71672701       0.00000000
