10
Lattice="16.28999089631971 0.0 0.0 0.0 16.28999089631971 0.0 0.0 0.0 34.54679606040008" Properties=species:S:1:pos:R:3:initial_magmoms:R:1 pbc="T T T"
Si      -1.10467377      -1.15116543      -1.72986269       0.00000000
Si      -0.11963376       2.22878151      -0.78773648       0.00000000
Si      -0.70749099      -0.18490779       2.28340631       0.00000000
Si       2.19691080      -0.96754455      -0.26031025       0.00000000
Si       1.04542704      -1.54968399       3.08520335       0.00000000
Si      -0.92077596      -3.42673901      -1.26116604       0.00000000
Si       2.01979451       3.23369532      -0.09078903       0.00000000
Si       3.52369709      -0.03772764       1.48475303       0.00000000
Si      -2.46132126       2.93242806      -0.28677311       0.00000000
Si       0.35681616       2.28788163      -3.18963837       0.00000000
