10
Lattice="16.28999089631971 0.0 0.0 0.0 16.28999089631971 0.0 0.0 0.0 34.54679606040008" Properties=species:S:1:pos:R:3:initial_magmoms:R:1 pbc="T T T"
Si       1.75291803      -1.36477620       0.80179704       0.00000000
Si      -1.87300791      -1.29103137       0.72137205       0.00000000
Si       0.70749099       0.18490779      -2.28340631       0.00000000
Si      -0.24623964       2.13964263       1.05516338       0.00000000
Si       2.02629681       2.90660841       1.30106761       0.00000000
Si       1.47308841      -3.48551333      -0.21543394       0.00000000
Si       1.61023392      -1.42975701       3.14897677       0.00000000
Si      -1.07163765       1.74467529       3.30402287       0.00000000
Si       2.90440179      -0.78263676      -2.54371656       0.00000000
Si       0.58785723       2.41368930      -3.07114279       0.00000000
