10
Lattice="16.28999089631971 0.0 0.0 0.0 16.28999089631971 0.0 0.0 0.0 34.54679606040008" Properties=species:S:1:pos:R:3:initial_magmoms:R:1 pbc="T T T"
Si       2.04153840       1.01858112       0.12633770       0.00000000
Si       0.09374895      -2.28590144       0.41342174       0.00000000
Si      -1.88105517       1.06780950       0.88491668       0.00000000
Si       0.14268411       0.06498081      -2.34717973       0.00000000
Si      -3.19785732      -0.59876664      -0.14378385       0.00000000
Si      -2.23467849      -2.61689795       0.63676690       0.00000000
Si       3.05426816       0.26415864      -1.99877510       0.00000000
Si       1.57785496       3.30546906      -0.06100968       0.00000000
Si      -1.61023392       1.42975701      -3.14897677       0.00000000
Si       0.64604252      -3.44449511      -1.55464124       0.00000000
