10
Lattice="16.28999089631971 0.0 0.0 0.0 16.28999089631971 0.0 0.0 0.0 34.54679606040008" Properties=species:S:1:pos:R:3:initial_magmoms:R:1 pbc="T T T"
Si      -1.35567009      -1.35703845       1.35713709       0.00000000
Si       1.35773892      -1.35733167      -1.35730983       0.00000000
Si       1.35783666       1.35821133       1.35713709       0.00000000
Si      -1.35788553       1.35812988      -1.35744802       0.00000000
Si      -0.00034209      -2.71350675       2.71050859       0.00000000
Si       0.00070047      -2.71399545      -2.71427419       0.00000000
Si       2.71415315      -0.00040725      -2.71413600       0.00000000
Si      -2.71241532      -0.00166158       2.71620881       0.00000000
Si      -2.71446786      -2.71482624       0.00000000       0.00000000
Si       2.71455365      -2.71498914       0.00041456       0.00000000
