10
Lattice="16.28999089631971 0.0 0.0 0.0 16.28999089631971 0.0 0.0 0.0 34.54679606040008" Properties=species:S:1:pos:R:3:initial_magmoms:R:1 pbc="T T T"
Si      -0.34094970       1.89631890      -1.45504277       0.00000000
Si       0.95604381       1.30709331       1.83170466       0.00000000
Si       1.79937711      -0.97821450      -1.38349631       0.00000000
Si      -1.59387876      -1.27492056       1.57995857       0.00000000
Si       0.04595409      -2.06573490      -2.49576558       0.00000000
Si       2.40662481       2.65318488       0.67348399       0.00000000
Si       2.46968619      -2.76540669       0.02363002       0.00000000
Si      -2.64572406       2.70040959       0.18952383       0.00000000
Si       1.51824429       3.38527377      -1.31937743       0.00000000
Si       2.42713329       0.03714120       3.11305296       0.00000000
