10
Lattice="16.28999089631971 0.0 0.0 0.0 16.28999089631971 0.0 0.0 0.0 34.54679606040008" Properties=species:S:1:pos:R:3:initial_magmoms:R:1 pbc="T T T"
Si       1.45058100       1.34609157      -1.15822068       0.00000000
Si       1.47108948      -1.26995211       1.28134829       0.00000000
Si      -1.26711765       1.47255084       1.30015212       0.00000000
Si      -0.95604381      -1.30709331      -1.83170466       0.00000000
Si      -1.29699351       0.58922559      -3.28674743       0.00000000
Si      -2.54992257      -2.58201387      -0.25174610       0.00000000
Si       0.09853821      -2.60762175       2.64906708       0.00000000
Si      -2.62669734       0.10896381       2.65259085       0.00000000
Si       0.56220048       2.07818046      -3.15108209       0.00000000
Si      -2.59243947       2.85483879      -0.09536648       0.00000000
