10
Lattice="16.28999089631971 0.0 0.0 0.0 16.28999089631971 0.0 0.0 0.0 34.54679606040008" Properties=species:S:1:pos:R:3:initial_magmoms:R:1 pbc="T T T"
Si      -1.35666378      -1.35555606      -1.35800077       0.00000000
Si       1.35772155       1.35656604      -1.35786258       0.00000000
Si      -1.35741312       1.35765747       1.35717164       0.00000000
Si       1.35807913      -1.35746199       1.35675708       0.00000000
Si       0.00011403       2.71283886       2.71548333       0.00000000
Si       0.00068418      -2.71437012       2.71437783       0.00000000
Si      -2.71503801      -2.71445157      -0.00020728       0.00000000
Si       2.71525697       2.71476108       0.00000000       0.00000000
Si       2.71664976       0.00070047       2.71341052       0.00000000
Si       0.00148239       2.71415835      -2.71593244       0.00000000
