10
Lattice="16.28999089631971 0.0 0.0 0.0 16.28999089631971 0.0 0.0 0.0 34.54679606040008" Properties=species:S:1:pos:R:3:initial_magmoms:R:1 pbc="T T T"
Si       1.33763936      -0.66148803      -1.79339428       0.00000000
Si       0.24229746       2.35361178      -0.10225857       0.00000000
Si      -2.33196237      -0.34744941       0.34056251       0.00000000
Si       1.05261093      -1.09447623       1.89119631       0.00000000
Si       3.33258281       0.42124311      -1.00645237       0.00000000
Si      -2.50763373      -0.00042354       2.70774484       0.00000000
Si       2.63795277       2.60661177      -0.34833554       0.00000000
Si      -0.59126184      -1.00175355       3.55348543       0.00000000
Si      -0.16032618       3.16791630       2.10970492       0.00000000
Si      -2.75128326      -2.74773204      -0.00076003       0.00000000
