10
Lattice="16.28999089631971 0.0 0.0 0.0 16.28999089631971 0.0 0.0 0.0 34.54679606040008" Properties=species:S:1:pos:R:3:initial_magmoms:R:1 pbc="T T T"
Si       1.52762733       0.79855209      -1.60659965       0.00000000
Si      -1.66007222      -1.89980496      -0.26217578       0.00000000
Si      -1.31397488       1.88089227       1.11568940       0.00000000
Si       1.95730866      -0.89689482       1.39572589       0.00000000
Si       0.00290614      -0.95399127       2.83667356       0.00000000
Si      -0.34704705       1.33369488       3.22750168       0.00000000
Si      -2.13652214      -1.95890508       2.13972610       0.00000000
Si      -0.23170244      -3.68924517      -0.92602739       0.00000000
Si       0.56993660       2.00902941      -3.30571567       0.00000000
Si      -1.64045906      -1.29041235      -3.31141589       0.00000000
