10
Lattice="16.28999089631971 0.0 0.0 0.0 16.28999089631971 0.0 0.0 0.0 34.54679606040008" Properties=species:S:1:pos:R:3:initial_magmoms:R:1 pbc="T T T"
Si      -1.64087541      -1.15134462       1.25816047       0.00000000
Si      -1.28091528       1.27650069      -1.67679878       0.00000000
Si       1.34785156       1.22891760       1.70588720       0.00000000
Si       1.41224104      -1.43961246      -1.67762790       0.00000000
Si       2.63823785       2.60322345      -0.04411628       0.00000000
Si      -2.57482998      -2.68589520      -0.34273896       0.00000000
Si      -2.58251886       2.77640897      -0.26314309       0.00000000
Si       2.74863518      -2.82318732      -0.28093470       0.00000000
Si       0.06512742       2.62266462      -3.06744628       0.00000000
Si      -2.65219119      -0.09096336      -3.06146968       0.00000000
