10
Lattice="16.28999089631971 0.0 0.0 0.0 16.28999089631971 0.0 0.0 0.0 34.54679606040008" Properties=species:S:1:pos:R:3:initial_magmoms:R:1 pbc="T T T"
Si       1.36004083      -1.72333539      -0.87838733       0.00000000
Si       1.11252555       2.09346048       0.14478570       0.00000000
Si      -0.97054191      -0.18117738       2.18784982       0.00000000
Si      -2.01691377       1.31149161      -0.81509756       0.00000000
Si      -1.03451274       3.02471091       0.57081703       0.00000000
Si      -2.83924926      -1.45160190       1.46153757       0.00000000
Si       3.51050219      -1.14034887      -0.09123814       0.00000000
Si      -1.81196928      -3.23532432       0.17639604       0.00000000
Si      -1.38000735       2.12385762       2.72985480       0.00000000
Si      -2.09417724       0.64068570      -3.05407667       0.00000000
