10
Lattice="16.28999089631971 0.0 0.0 0.0 16.28999089631971 0.0 0.0 0.0 34.54679606040008" Properties=species:S:1:pos:R:3:initial_magmoms:R:1 pbc="T T T"
Si       0.34549461       0.90085329      -2.15903777       0.00000000
Si      -2.01518703       1.12534629       0.61752432       0.00000000
Si       0.40946544      -2.30503500      -0.54200499       0.00000000
Si       2.03186799       0.65717118       1.17010064       0.00000000
Si       2.49253290      -0.03039714      -2.58506910       0.00000000
Si      -0.63690642      -0.81236601      -3.54495237       0.00000000
Si       3.49478071       1.00405246      -0.70192219       0.00000000
Si       1.38000735      -2.12385762      -2.72985480       0.00000000
Si      -1.31422833       2.85165314       2.10690663       0.00000000
Si       1.84077000      -3.42591732       1.09330307       0.00000000
