10
Lattice="16.28999089631971 0.0 0.0 0.0 16.28999089631971 0.0 0.0 0.0 34.54679606040008" Properties=species:S:1:pos:R:3:initial_magmoms:R:1 pbc="T T T"
Si       0.27982962       2.12073713       1.01723098       0.00000000
Si       1.46291272       0.34688128      -1.87202283       0.00000000
Si       0.78318803      -1.38873879       1.80976947       0.00000000
Si      -2.03186799      -0.65717118      -1.17010064       0.00000000
Si      -1.68637338       0.24368211      -3.32913841       0.00000000
Si      -1.62240255      -2.96220618      -1.71210562       0.00000000
Si      -1.47308841       3.48551333       0.21543394       0.00000000
Si       0.23089446      -0.23014512       3.77783245       0.00000000
Si       1.43131338       2.70287657      -2.32828262       0.00000000
Si       0.46066491      -0.68756832      -3.75516974       0.00000000
