10
Lattice="16.28999089631971 0.0 0.0 0.0 16.28999089631971 0.0 0.0 0.0 34.54679606040008" Properties=species:S:1:pos:R:3:initial_magmoms:R:1 pbc="T T T"
Si       0.62985285       0.03059262      -2.28409724       0.00000000
Si       1.05777486      -1.97879517       0.76621382       0.00000000
Si       1.30507335       1.70236757       1.17815004       0.00000000
Si      -2.41668666       0.05852997      -0.54514875       0.00000000
Si      -2.39544450       1.98267775      -1.93935457       0.00000000
Si      -0.33332598       2.04872392      -3.06464799       0.00000000
Si      -0.39482073      -3.78356427       0.12588860       0.00000000
Si       1.73327229      -1.68111171       3.03296856       0.00000000
Si       2.95828029       0.36158913      -2.50744241       0.00000000
Si       0.01309716      -1.93274334      -3.46767114       0.00000000
