10
Lattice="16.28999089631971 0.0 0.0 0.0 16.28999089631971 0.0 0.0 0.0 34.54679606040008" Properties=species:S:1:pos:R:3:initial_magmoms:R:1 pbc="T T T"
Si      -0.09374895       2.28590144      -0.41342174       0.00000000
Si       1.39656518      -0.57764340       1.77719182       0.00000000
Si       0.55229357      -1.15859367      -1.96806298       0.00000000
Si      -2.32842744      -0.33099651       0.22334516       0.00000000
Si      -0.82461609      -3.03863886      -1.64266652       0.00000000
Si       0.37067895      -2.65028526       2.39167603       0.00000000
Si       0.04893516       2.35088225      -2.76060147       0.00000000
Si      -3.29160627       1.68713479      -0.55720559       0.00000000
Si       0.75629161       0.87900581       3.59708351       0.00000000
Si       3.65984891      -0.50078718       0.81647943       0.00000000
