10
Lattice="16.28999089631971 0.0 0.0 0.0 16.28999089631971 0.0 0.0 0.0 34.54679606040008" Properties=species:S:1:pos:R:3:initial_magmoms:R:1 pbc="T T T"
Si       1.36723110       1.34930070      -1.38729646       0.00000000
Si      -1.34461793      -1.36932111      -1.39075115       0.00000000
Si       1.33639413      -1.38357486       1.39669320       0.00000000
Si      -1.41224104       1.43961246       1.67762790       0.00000000
Si      -0.22847377      -2.69239491       2.65091533       0.00000000
Si      -2.69315632       2.71611315       0.00082912       0.00000000
Si       2.71087917       2.71349046      -0.00024183       0.00000000
Si       2.71366476      -2.71450044      -0.03230127       0.00000000
Si      -2.70576478      -2.72440476      -0.02176449       0.00000000
Si      -2.70319096      -0.01303200      -2.74875191       0.00000000
