10
Lattice="16.28999089631971 0.0 0.0 0.0 16.28999089631971 0.0 0.0 0.0 34.54679606040008" Properties=species:S:1:pos:R:3:initial_magmoms:R:1 pbc="T T T"
Si      -1.35412484      -1.34804310      -1.39030204       0.00000000
Si       1.36440642       1.36688087      -1.38767648       0.00000000
Si      -1.48652996       1.35700913       1.35385515       0.00000000
Si       1.21898559      -1.36748427       1.63302796       0.00000000
Si      -2.70016754      -2.69420703       0.00034547       0.00000000
Si       2.70386796      -2.69682972      -0.00072548       0.00000000
Si      -2.71598513       2.71903232      -0.05285663       0.00000000
Si       2.70559470       2.73934595      -0.01178046       0.00000000
Si       0.00517045      -2.70608244      -2.75051380       0.00000000
Si      -2.71238504       0.00902629      -2.75141202       0.00000000
