10
Lattice="16.28999089631971 0.0 0.0 0.0 16.28999089631971 0.0 0.0 0.0 34.54679606040008" Properties=species:S:1:pos:R:3:initial_magmoms:R:1 pbc="T T T"
Si      -1.34364807      -1.36418976      -1.38705464       0.00000000
Si       1.37187864       1.35091341      -1.38712373       0.00000000
Si       1.30210857      -1.49809356       1.35257692       0.00000000
Si      -1.48488237       1.32934545       1.63375345       0.00000000
Si      -2.70386796       2.69682972       0.00072548       0.00000000
Si      -2.71087917      -2.71349046       0.00024183       0.00000000
Si       2.72907999       2.70982425      -0.00435290       0.00000000
Si      -2.69869751      -0.00925272      -2.74978832       0.00000000
Si       0.01534518       2.70383768      -2.75020288       0.00000000
Si       0.01537776      -2.72510523      -2.74958104       0.00000000
