10
Lattice="10.86 0.0 0.0 0.0 10.86 0.0 0.0 0.0 10.86" Properties=species:S:1:pos:R:3:initial_magmoms:R:1 pbc="T T T"
Si       1.20326628      -1.04362428      -1.45442550       0.00000000
Si      -1.51173372      -1.04362428       1.26057450       0.00000000
Si       1.20326628       1.67137572       1.26057450       0.00000000
Si       2.56076628      -2.40112428      -0.09692550       0.00000000
Si      -0.15423372      -2.40112428       2.61807450       0.00000000
Si       2.56076628       0.31387572       2.61807450       0.00000000
Si      -0.15423372      -2.40112428      -2.81192550       0.00000000
Si      -2.86923372      -2.40112428      -0.09692550       0.00000000
Si       2.56076628       0.31387572      -2.81192550       0.00000000
Si      -2.89419000       0.58564722       2.61833514       0.00000000
