10
Lattice="10.86 0.0 0.0 0.0 10.86 0.0 0.0 0.0 10.86" Properties=species:S:1:pos:R:3:initial_magmoms:R:1 pbc="T T T"
Si      -1.29846504      -1.40010378       1.25606760       0.00000000
Si       1.41653496       1.31489622       1.25606760       0.00000000
Si      -1.29846504       1.31489622      -1.45893240       0.00000000
Si       1.47197526      -2.03730342      -1.10408190       0.00000000
Si      -2.65596504      -0.04260378       2.61356760       0.00000000
Si       0.05903496       2.67239622       2.61356760       0.00000000
Si       2.72432874      -0.17212014       2.56190658       0.00000000
Si      -2.65596504       2.67239622      -0.10143240       0.00000000
Si      -0.19727190      -2.59194534       2.75271678       0.00000000
Si      -2.65596504      -2.75760378      -0.10143240       0.00000000
