10
Lattice="16.28999089631971 0.0 0.0 0.0 16.28999089631971 0.0 0.0 0.0 34.5300574570662" Properties=species:S:1:pos:R:3:initial_magmoms:R:1 pbc="T T T"
Si       1.22437269      -1.53226886      -1.39639630       0.00000000
Si       1.60029702       1.86601152       0.17299568       0.00000000
Si      -1.61438787       1.10276637      -1.56020699       0.00000000
Si      -0.31087836      -1.88680442       2.01262005       0.00000000
Si      -2.41012179       1.35685454       2.06154917       0.00000000
Si       2.39834412      -0.13655795      -2.89507070       0.00000000
Si       3.50930583       0.99846802      -1.09080512       0.00000000
Si      -0.35030016       2.65070082      -2.84983629       0.00000000
Si      -3.32728137       2.08333641      -0.10241621       0.00000000
Si      -0.16669557      -2.83550144      -2.80567233       0.00000000
