10
Lattice="16.28999089631971 0.0 0.0 0.0 16.28999089631971 0.0 0.0 0.0 34.5300574570662" Properties=species:S:1:pos:R:3:initial_magmoms:R:1 pbc="T T T"
Si      -0.85846671      -0.96572007       1.93337353       0.00000000
Si      -1.52314758      -0.01925478      -1.76648967       0.00000000
Si       0.59411259       2.25113139       0.55476021       0.00000000
Si       2.00749815      -1.13327901      -0.72319793       0.00000000
Si       2.40114600       1.72313991       1.93751714       0.00000000
Si       3.47420088      -0.16433352       0.91497797       0.00000000
Si      -0.62464005       1.51418808      -3.24934928       0.00000000
Si      -1.28518326      -3.16914131       1.24808962       0.00000000
Si       2.17199457       2.66235615      -1.31134872       0.00000000
Si      -2.74173732       0.23428278       2.79465723       0.00000000
