10
Lattice="16.28999089631971 0.0 0.0 0.0 16.28999089631971 0.0 0.0 0.0 34.5300574570662" Properties=species:S:1:pos:R:3:initial_magmoms:R:1 pbc="T T T"
Si       0.89850753       1.53344286      -1.48285962       0.00000000
Si       1.52314758       0.01925478       1.76648967       0.00000000
Si      -2.21301279       0.44553150       0.62754961       0.00000000
Si      -0.86669316      -1.90868790      -1.11331873       0.00000000
Si      -2.67007761      -1.86520500       0.43069365       0.00000000
Si      -0.03479544       0.61509411      -3.41978974       0.00000000
Si      -1.93414428      -0.75095271      -2.97241807       0.00000000
Si      -2.23927227       1.40111919       2.73336635       0.00000000
Si       3.53064573      -1.11402423       1.04329174       0.00000000
Si       3.24355077       1.42762302      -1.50930965       0.00000000
