10
Lattice="16.28999089631971 0.0 0.0 0.0 16.28999089631971 0.0 0.0 0.0 34.5300574570662" Properties=species:S:1:pos:R:3:initial_magmoms:R:1 pbc="T T T"
Si       0.86669316       1.90868790       1.11331873       0.00000000
Si      -1.80338445       0.04348290       1.54401238       0.00000000
Si       1.47077523      -1.90493861       0.27751823       0.00000000
Si      -1.06745112       1.15773519      -1.85909933       0.00000000
Si      -1.34631963       2.35421940       1.74086835       0.00000000
Si       0.83189772       2.52378201      -2.30647101       0.00000000
Si      -1.02633516      -1.37527836       3.22120727       0.00000000
Si       0.02503773      -3.75316943       0.12372127       0.00000000
Si       1.76520069       3.44213076      -0.36954088       0.00000000
Si      -1.74980664      -0.18486707      -3.65694231       0.00000000
