10
Lattice="16.28999089631971 0.0 0.0 0.0 16.28999089631971 0.0 0.0 0.0 34.5300574570662" Properties=species:S:1:pos:R:3:initial_magmoms:R:1 pbc="T T T"
Si      -1.38315132       0.43290675      -1.79943136       0.00000000
Si       0.27443763       1.69479531       1.56797626       0.00000000
Si       1.95861186      -1.26423921      -0.06070387       0.00000000
Si      -1.26602622      -1.68275863       1.00582661       0.00000000
Si      -1.80986787      -1.77051449      -2.48471526       0.00000000
Si       3.13742142      -0.09088191       1.68572382       0.00000000
Si       1.64656062       3.26096478       0.49764747       0.00000000
Si       1.68370182       0.90873765       3.22579977       0.00000000
Si      -1.74418659      -3.27524201      -0.63870283       0.00000000
Si      -3.26642193       1.63290960      -0.93814766       0.00000000
