10
Lattice="16.28999089631971 0.0 0.0 0.0 16.28999089631971 0.0 0.0 0.0 34.5300574570662" Properties=species:S:1:pos:R:3:initial_magmoms:R:1 pbc="T T T"
Si      -0.68235552      -1.34260225      -1.79784298       0.00000000
Si       1.89934884       1.36604682      -0.44737167       0.00000000
Si       1.06745112      -1.15773519       1.85909933       0.00000000
Si      -2.08513629       1.38789171      -0.04996502       0.00000000
Si       1.93414428       0.75095271       2.97241807       0.00000000
Si      -0.73593333      -1.11425229       3.40311171       0.00000000
Si      -1.80314010       2.38288491       2.19348860       0.00000000
Si      -0.27886851       1.19648421       3.59996768       0.00000000
Si      -1.81428246      -3.24899882      -1.04280832       0.00000000
Si       2.83265181       2.28439557       1.48955845       0.00000000
