10
Lattice="16.28999089631971 0.0 0.0 0.0 16.28999089631971 0.0 0.0 0.0 34.5300574570662" Properties=species:S:1:pos:R:3:initial_magmoms:R:1 pbc="T T T"
Si       1.63290960      -0.11451870      -1.67239521       0.00000000
Si       0.00886176      -1.85987817       1.42384771       0.00000000
Si      -2.07798498       0.14273298      -1.18161923       0.00000000
Si       0.53128206       1.93499136       1.34487743       0.00000000
Si      -1.54453635       2.87736786       0.70196193       0.00000000
Si       1.76244768      -3.12976512       0.40818004       0.00000000
Si       0.94216473      -0.94152942       3.36077784       0.00000000
Si       3.51603360      -1.30135923      -0.60306779       0.00000000
Si      -2.63857275       2.41352640      -1.49270069       0.00000000
Si       2.05338708       2.20967334      -2.44441866       0.00000000
