10
Lattice="16.28999089631971 0.0 0.0 0.0 16.28999089631971 0.0 0.0 0.0 34.5300574570662" Properties=species:S:1:pos:R:3:initial_magmoms:R:1 pbc="T T T"
Si       0.27956898      -2.32422462      -0.28901674       0.00000000
Si      -1.93416057       0.73511883       1.15627415       0.00000000
Si      -0.13131369       0.55229616      -2.30491715       0.00000000
Si       2.10460284       0.82192824       0.83990959       0.00000000
Si       2.62461222      -2.43004446      -0.31546678       0.00000000
Si       3.07620360      -1.17605655       1.64898382       0.00000000
Si       1.52195841       2.33639325      -2.56855429       0.00000000
Si       3.27257955       1.83490560      -0.98372736       0.00000000
Si      -0.66259575      -1.38269520      -3.64979458       0.00000000
Si      -2.20713210       1.49467266      -2.94783265       0.00000000
