10
Lattice="16.28999089631971 0.0 0.0 0.0 16.28999089631971 0.0 0.0 0.0 34.5300574570662" Properties=species:S:1:pos:R:3:initial_magmoms:R:1 pbc="T T T"
Si      -0.89850753      -1.53344286       1.48285962       0.00000000
Si      -0.93330297      -0.91834875      -1.93693013       0.00000000
Si       2.34504324      -0.10581984      -0.02645004       0.00000000
Si      -0.27956898       2.32422462       0.28901674       0.00000000
Si      -0.41088267       2.87652078      -2.01590041       0.00000000
Si       2.79663462       1.14816807       1.93800056       0.00000000
Si      -0.94216473       0.94152942      -3.36077784       0.00000000
Si       0.62464005      -1.51418808       3.24934928       0.00000000
Si       0.82028295      -2.18823570      -2.95259780       0.00000000
Si       1.82503386       3.14615286       1.12892633       0.00000000
