10
Lattice="16.28999089631971 0.0 0.0 0.0 16.28999089631971 0.0 0.0 0.0 34.5300574570662" Properties=species:S:1:pos:R:3:initial_magmoms:R:1 pbc="T T T"
Si       1.69727139      -0.44253414       1.54570436       0.00000000
Si       0.58427343       2.23500429      -0.71356404       0.00000000
Si      -0.03789054      -1.55062881      -1.89594292       0.00000000
Si      -2.12968944      -0.63522855       1.09446531       0.00000000
Si       0.89194266      -2.36608992       2.56195904       0.00000000
Si      -0.98355762      -1.12304889       3.30884460       0.00000000
Si      -1.33993395      -3.34648728      -0.97875503       0.00000000
Si       3.50296902      -1.48874310       0.61018099       0.00000000
Si      -1.05857307      -0.40304718      -3.72372348       0.00000000
Si       1.59804900       2.14246080      -2.95574004       0.00000000
