10
Lattice="16.28999089631971 0.0 0.0 0.0 16.28999089631971 0.0 0.0 0.0 34.5300574570662" Properties=species:S:1:pos:R:3:initial_magmoms:R:1 pbc="T T T"
Si       1.73229489       0.37649448       1.72517930       0.00000000
Si      -1.84858920       1.64911815       0.36702019       0.00000000
Si      -1.24989912      -2.13480450      -1.01290527       0.00000000
Si      -0.66028257      -2.04986844       1.78714698       0.00000000
Si       1.65783330       2.05214904      -1.03552247       0.00000000
Si       1.43092989      -1.45428975      -2.77604552       0.00000000
Si       0.46871217       1.81320732       3.12961076       0.00000000
Si       3.51619650       1.37456649       0.44546151       0.00000000
Si      -0.72216828       3.28289112       1.80046178       0.00000000
Si       0.62560116      -3.37784553      -1.75979083       0.00000000
