10
Lattice="16.28999089631971 0.0 0.0 0.0 16.28999089631971 0.0 0.0 0.0 34.5300574570662" Properties=species:S:1:pos:R:3:initial_magmoms:R:1 pbc="T T T"
Si      -1.19088045       1.46968380      -1.32914898       0.00000000
Si       1.33867962       1.36313091       1.34315438       0.00000000
Si      -1.38465000      -1.34827443       1.34115163       0.00000000
Si       1.26358272      -1.43671284      -1.40443145       0.00000000
Si      -2.31730137      -0.16408917      -2.76259057       0.00000000
Si      -0.46871217      -1.81320732      -3.12961076       0.00000000
Si       2.66279598      -2.70689301       0.00493089       0.00000000
Si       2.66667300       2.71331127      -0.02574217       0.00000000
Si       2.69158041       0.00821016       2.70149854       0.00000000
Si      -0.02161683      -2.70989037       2.69925408       0.00000000
