10
Lattice="16.28999089631971 0.0 0.0 0.0 16.28999089631971 0.0 0.0 0.0 34.5300574570662" Properties=species:S:1:pos:R:3:initial_magmoms:R:1 pbc="T T T"
Si       1.34050410      -1.35723393       1.31780585       0.00000000
Si      -1.32750468      -1.36515087      -1.36031237       0.00000000
Si       1.38885282       1.34829072      -1.36165905       0.00000000
Si      -1.27334043       1.38114765       1.54311460       0.00000000
Si       2.41911387       0.28085589       2.66658518       0.00000000
Si      -0.13064580      -2.54316222       2.80594857       0.00000000
Si      -2.65673121       2.71184517       0.01681615       0.00000000
Si       0.75531843       2.18839860       3.02863303       0.00000000
Si      -2.68128187      -0.01358586      -2.71965791       0.00000000
Si      -2.68225601      -2.72385090       0.03263092       0.00000000
