10
Lattice="16.28999089631971 0.0 0.0 0.0 16.28999089631971 0.0 0.0 0.0 34.5300574570662" Properties=species:S:1:pos:R:3:initial_magmoms:R:1 pbc="T T T"
Si       1.36335897      -1.29723786      -1.35941459       0.00000000
Si      -1.30969971       1.41265251      -1.32958061       0.00000000
Si      -1.65301146      -1.01160900       1.34052664       0.00000000
Si       1.76704146       1.04293467       1.16604616       0.00000000
Si       0.21185145       2.22128811       2.63502469       0.00000000
Si      -0.20233809      -2.61304632       2.51527438       0.00000000
Si      -2.58514155       2.70638802       0.16584796       0.00000000
Si       2.73934269      -2.58356142      -0.02662269       0.00000000
Si       0.03992679      -2.66198148      -2.68795929       0.00000000
Si      -2.68327251       0.05582583      -2.68771758       0.00000000
