10
Lattice="16.28999089631971 0.0 0.0 0.0 16.28999089631971 0.0 0.0 0.0 34.5300574570662" Properties=species:S:1:pos:R:3:initial_magmoms:R:1 pbc="T T T"
Si       1.65301146       1.01160900      -1.34052664       0.00000000
Si      -1.07860977      -1.63808982      -1.34877933       0.00000000
Si       1.45067337      -1.60143732       1.17474774       0.00000000
Si      -1.66379544       1.90754271       0.36204785       0.00000000
Si      -2.41911387      -0.28085589      -2.66658518       0.00000000
Si       0.34331175       2.42426151      -2.67010725       0.00000000
Si      -2.54975967      -2.82401811       0.13936339       0.00000000
Si       1.86486291       3.23289711       1.29449805       0.00000000
Si       3.42005292       2.05454367      -0.17448048       0.00000000
Si      -0.93213009       3.71799702      -1.17467868       0.00000000
