10
Lattice="16.28999089631971 0.0 0.0 0.0 16.28999089631971 0.0 0.0 0.0 34.5300574570662" Properties=species:S:1:pos:R:3:initial_magmoms:R:1 pbc="T T T"
Si      -0.52000938       0.77237406       2.25339828       0.00000000
Si       0.73166535       1.81045431      -1.53672654       0.00000000
Si       1.66379544      -1.90754271      -0.36204785       0.00000000
Si      -2.02865886      -0.80725095      -1.48551843       0.00000000
Si      -2.88131004       0.70885935       2.01400126       0.00000000
Si       2.00710719       0.51671880      -3.03215510       0.00000000
Si       2.12273361       3.11368689      -0.12745051       0.00000000
Si      -0.75531843      -2.18839860      -3.02863303       0.00000000
Si       3.31680690      -0.89593371      -1.70257449       0.00000000
Si       3.52865835       1.32535440       0.93245019       0.00000000
