10
Lattice="16.28999089631971 0.0 0.0 0.0 16.28999089631971 0.0 0.0 0.0 34.5300574570662" Properties=species:S:1:pos:R:3:initial_magmoms:R:1 pbc="T T T"
Si       1.95942799      -0.92519055      -0.84350071       0.00000000
Si      -1.02104580      -1.66533810       1.40813653       0.00000000
Si      -1.05260767       0.33995601      -2.18675523       0.00000000
Si       1.16967250       1.78606818       1.22971962       0.00000000
Si       1.16263522      -2.59169176      -2.36385999       0.00000000
Si      -2.62572550       2.31902811       1.24449850       0.00000000
Si       3.29817277      -1.53931703       1.04032215       0.00000000
Si       3.26147140       0.87066792      -1.76068861       0.00000000
Si      -0.57555991       3.42186111       1.66911485       0.00000000
Si      -0.73416749      -1.66124280      -3.42831867       0.00000000
