10
Lattice="16.28999089631971 0.0 0.0 0.0 16.28999089631971 0.0 0.0 0.0 34.5300574570662" Properties=species:S:1:pos:R:3:initial_magmoms:R:1 pbc="T T T"
Si       1.80540441      -0.39351753      -1.43479375       0.00000000
Si      -1.44573750      -1.84823082      -0.15379696       0.00000000
Si       0.96611103      -0.26397945       2.15982177       0.00000000
Si      -1.47077523       1.90493861      -0.27751823       0.00000000
Si      -2.61291600      -1.55717739       1.89024546       0.00000000
Si       0.94871331      -2.06355204      -2.91454566       0.00000000
Si       3.21499440       0.33079274       1.86534928       0.00000000
Si       2.48666850       1.72312266      -2.27908866       0.00000000
Si       3.73510152      -0.97710678      -0.10697418       0.00000000
Si      -2.49711039       0.52966025       2.94368904       0.00000000
