10
Lattice="16.28999089631971 0.0 0.0 0.0 16.28999089631971 0.0 0.0 0.0 34.5300574570662" Properties=species:S:1:pos:R:3:initial_magmoms:R:1 pbc="T T T"
Si      -1.11096171      -1.13502597      -1.80426557       0.00000000
Si      -1.90900881       0.86754350       1.26380081       0.00000000
Si       1.36275624      -1.55107257       1.44277020       0.00000000
Si       1.43839071       1.41443138      -1.70613109       0.00000000
Si      -2.28493314      -2.53073688      -0.30559118       0.00000000
Si      -2.49970050       2.81615330      -0.08180175       0.00000000
Si      -3.50930583      -0.99846802       1.09080512       0.00000000
Si       1.72007739      -0.19057019       3.45100493       0.00000000
Si       3.05857782      -2.47261416      -0.13673910       0.00000000
Si       2.35025604       1.89845615       2.52501186       0.00000000
