10
Lattice="16.28999089631971 0.0 0.0 0.0 16.28999089631971 0.0 0.0 0.0 34.5300574570662" Properties=species:S:1:pos:R:3:initial_magmoms:R:1 pbc="T T T"
Si       1.42721577       1.60827912       1.06981084       0.00000000
Si       1.55442438      -1.12185483      -1.48579467       0.00000000
Si      -1.15189848       1.57807746      -1.47436522       0.00000000
Si      -1.43839071      -1.41443138       1.70613109       0.00000000
Si      -2.54935242      -2.54945735      -0.09813448       0.00000000
Si       2.83364550      -2.49372926      -0.03801761       0.00000000
Si       0.22253769      -2.47048343      -2.86226712       0.00000000
Si      -2.49219081       0.24576723      -2.86164558       0.00000000
Si      -2.64137463       2.75626800      -0.01564212       0.00000000
Si       0.17694198       3.02647023       2.43405964       0.00000000
