10
Lattice="16.28999089631971 0.0 0.0 0.0 16.28999089631971 0.0 0.0 0.0 34.5300574570662" Properties=species:S:1:pos:R:3:initial_magmoms:R:1 pbc="T T T"
Si      -0.67657257       2.20973850      -0.25265657       0.00000000
Si       2.30544225      -0.11684817      -0.42927791       0.00000000
Si      -0.38947761      -0.33190875       2.29994482       0.00000000
Si      -0.82937277      -1.30838837      -1.85823608       0.00000000
Si      -0.10104687      -2.70071829       2.28620185       0.00000000
Si       2.39373405       1.43166294      -2.23095373       0.00000000
Si       0.45131445       2.88790749      -2.22425489       0.00000000
Si      -3.02161581       2.31555834      -0.22620653       0.00000000
Si      -2.20133286       0.12732264      -3.17880434       0.00000000
Si      -0.22498119       3.46372641       1.71179403       0.00000000
