10
Lattice="16.28999089631971 0.0 0.0 0.0 16.28999089631971 0.0 0.0 0.0 34.5300574570662" Properties=species:S:1:pos:R:3:initial_magmoms:R:1 pbc="T T T"
Si      -1.38636045      -1.58338800      -1.07626796       0.00000000
Si       1.43195616      -1.31318577       1.37343380       0.00000000
Si      -1.47657447       1.38249972       1.28006448       0.00000000
Si       1.46510631       1.41198462      -1.26183259       0.00000000
Si      -1.89705195      -0.94169232       2.05208793       0.00000000
Si      -2.59447572      -0.04408074      -2.54383075       0.00000000
Si       0.08912259       2.69830818      -2.59462450       0.00000000
Si       0.10311570      -2.76157854      -2.53499105       0.00000000
Si      -0.01392795      -2.12853285       3.12141535       0.00000000
Si       3.34930545       0.10713933       1.78510138       0.00000000
