10
Lattice="16.28999089631971 0.0 0.0 0.0 16.28999089631971 0.0 0.0 0.0 34.5300574570662" Properties=species:S:1:pos:R:3:initial_magmoms:R:1 pbc="T T T"
Si      -1.25027379       1.41819111       1.36424880       0.00000000
Si       1.37968155      -0.87190596       1.72764333       0.00000000
Si       1.56880845       1.36580247      -1.19028628       0.00000000
Si      -1.42721577      -1.60827912      -1.06981084       0.00000000
Si      -0.51535044      -1.12425435       3.16133212       0.00000000
Si       0.66707550       2.83851621       1.77591638       0.00000000
Si       2.46975948      -2.38664790       0.18601352       0.00000000
Si      -2.57911425      -0.03020166      -2.54417606       0.00000000
Si       0.16294887       2.71591767      -2.56523940       0.00000000
Si       0.12720861      -2.73013395      -2.55560551       0.00000000
