10
Lattice="16.28999089631971 0.0 0.0 0.0 16.28999089631971 0.0 0.0 0.0 34.5300574570662" Properties=species:S:1:pos:R:3:initial_magmoms:R:1 pbc="T T T"
Si       1.75932000       0.68005863      -1.51528336       0.00000000
Si       0.80014851       1.74247614       1.50627101       0.00000000
Si       0.24718446      -2.38133736       0.75931639       0.00000000
Si      -1.76555907       0.15926733      -1.82681371       0.00000000
Si      -1.20879945      -2.18637864      -2.29828738       0.00000000
Si      -0.55454418      -1.70865810       2.98788758       0.00000000
Si       0.93159252       2.80460043      -2.02632849       0.00000000
Si       0.84693339      -3.19226985      -1.48838443       0.00000000
Si       0.25528059       3.66775866       0.18221522       0.00000000
Si      -2.30135346       0.12251709       2.92907181       0.00000000
