10
Lattice="16.28999089631971 0.0 0.0 0.0 16.28999089631971 0.0 0.0 0.0 34.5300574570662" Properties=species:S:1:pos:R:3:initial_magmoms:R:1 pbc="T T T"
Si      -1.35868374      -1.34622189      -1.33697695       0.00000000
Si       1.35224919      -1.35654975       1.35868946       0.00000000
Si      -1.36060596       1.35695700       1.35820604       0.00000000
Si       1.36767582       1.35031068      -1.38799859       0.00000000
Si      -0.12013875       2.63583603      -2.75247874       0.00000000
Si       2.70954828      -2.71287144      -0.00466156       0.00000000
Si       2.71142163       0.00104256       2.71551430       0.00000000
Si       2.70852201       2.72026710      -0.00089778       0.00000000
Si      -0.00275301      -2.71345788       2.71589413       0.00000000
Si      -2.71526607       2.71647153       0.00096684       0.00000000
