10
Lattice="16.28999089631971 0.0 0.0 0.0 16.28999089631971 0.0 0.0 0.0 34.5300574570662" Properties=species:S:1:pos:R:3:initial_magmoms:R:1 pbc="T T T"
Si      -1.02188799      -1.56970440       1.34654420       0.00000000
Si       1.65863151       1.15904979       1.24809204       0.00000000
Si       1.15953849      -1.65907134      -1.44787620       0.00000000
Si      -1.75124016       1.75053969      -0.42285087       0.00000000
Si       0.61467057       0.26621118      -2.77193199       0.00000000
Si       1.83368385       2.19396978      -1.98264350       0.00000000
Si      -2.32277481      -0.12707829       2.63333168       0.00000000
Si      -1.64760318       1.16049960      -2.91105367       0.00000000
Si       0.41681223       2.59709841       2.63885304       0.00000000
Si      -1.94196348      -3.27903039      -0.02507540       0.00000000
