10
Lattice="16.28999089631971 0.0 0.0 0.0 16.28999089631971 0.0 0.0 0.0 34.5300574570662" Properties=species:S:1:pos:R:3:initial_magmoms:R:1 pbc="T T T"
Si       1.35858600       1.35648459       1.35710108       0.00000000
Si      -1.35738054       1.35733167      -1.35751544       0.00000000
Si       1.35749457      -1.35690813      -1.35799886       0.00000000
Si      -1.36034532      -1.35751086       1.35744638       0.00000000
Si      -2.71033020      -0.00047241       2.71492728       0.00000000
Si       2.71557558       0.00055386       2.71030025       0.00000000
Si       2.71249677       0.00000000      -2.71520353       0.00000000
Si      -0.00035838       2.71350675      -2.71568695       0.00000000
Si       2.71505430      -2.71443528       0.00017265       0.00000000
Si      -0.00008145      -2.71467963      -2.71496181       0.00000000
