10
Lattice="16.28999089631971 0.0 0.0 0.0 16.28999089631971 0.0 0.0 0.0 34.5300574570662" Properties=species:S:1:pos:R:3:initial_magmoms:R:1 pbc="T T T"
Si       1.07515629       0.67137606       1.95436781       0.00000000
Si       1.55519001      -1.17835344      -1.46897853       0.00000000
Si      -1.40592474       1.78833249      -1.05990071       0.00000000
Si      -0.21185145      -2.22128811      -2.63502469       0.00000000
Si       2.24176464       2.76799680       0.68846067       0.00000000
Si      -0.87112404       0.89383230       3.41795965       0.00000000
Si       1.19358459      -3.14524062       1.50091885       0.00000000
Si       2.60592759       0.63921960      -2.55636517       0.00000000
Si      -2.79699300       0.48509991      -2.46917673       0.00000000
Si       2.03496309      -1.30316742       2.99755596       0.00000000
