10
Lattice="16.28999089631971 0.0 0.0 0.0 16.28999089631971 0.0 0.0 0.0 34.5300574570662" Properties=species:S:1:pos:R:3:initial_magmoms:R:1 pbc="T T T"
Si       1.80747324      -0.54113751      -1.42212121       0.00000000
Si      -1.88022438      -1.15390215      -0.85147716       0.00000000
Si      -0.31126932      -0.49472730       2.31068368       0.00000000
Si       0.04794147       2.41002635       0.25303640       0.00000000
Si       1.72874367       1.37101527      -2.78191563       0.00000000
Si      -3.65485698       0.39902355      -0.32496255       0.00000000
Si       1.66304610       3.06569396      -1.22419481       0.00000000
Si      -2.12459067       0.89262684       3.12576614       0.00000000
Si      -3.17669661       1.99150693       1.31956688       0.00000000
Si       3.80941650      -1.25446032      -0.31253172       0.00000000
