10
Lattice="16.28999089631971 0.0 0.0 0.0 16.28999089631971 0.0 0.0 0.0 34.5300574570662" Properties=species:S:1:pos:R:3:initial_magmoms:R:1 pbc="T T T"
Si       0.31126932       0.49472730      -2.31068368       0.00000000
Si      -0.75103416      -2.11160754       0.84208498       0.00000000
Si      -1.81332135       1.38735414       0.81508246       0.00000000
Si       1.73100798       0.97231752       1.49301146       0.00000000
Si       2.73025287      -1.07813736       1.77049516       0.00000000
Si       1.51123959      -3.00589596       0.98120666       0.00000000
Si       0.35921079       2.90475365      -2.05764727       0.00000000
Si      -1.56895506      -0.65917485      -3.16216084       0.00000000
Si      -0.85467114      -1.52156745       3.33028778       0.00000000
Si      -2.86542729       2.48623423      -0.99111679       0.00000000
