10
Lattice="16.28999089631971 0.0 0.0 0.0 16.28999089631971 0.0 0.0 0.0 34.5300574570662" Properties=species:S:1:pos:R:3:initial_magmoms:R:1 pbc="T T T"
Si      -1.37968155       0.87190596      -1.72764333       0.00000000
Si      -1.89503199      -0.25234839       1.43368879       0.00000000
Si       1.09007793      -1.51474194      -1.54162981       0.00000000
Si       0.99287550       2.08165023       0.90862444       0.00000000
Si       1.35395964      -2.56708408       1.03821582       0.00000000
Si      -2.62995534       2.29009707      -0.36339453       0.00000000
Si       0.18912690       2.23770843      -2.91792961       0.00000000
Si      -1.23435846       0.95068440       3.34368545       0.00000000
Si      -0.71260605       3.71042217       0.04827305       0.00000000
Si       3.18037556      -2.37702865      -0.45596966       0.00000000
