10
Lattice="16.28999089631971 0.0 0.0 0.0 16.28999089631971 0.0 0.0 0.0 34.5300574570662" Properties=species:S:1:pos:R:3:initial_magmoms:R:1 pbc="T T T"
Si      -1.35584928      -1.35053874       1.38782249       0.00000000
Si       1.35552348       1.36295172       1.38568162       0.00000000
Si      -1.44601443       1.38813606      -1.36537448       0.00000000
Si       1.40349753      -1.28695887      -1.53539022       0.00000000
Si       2.71119357      -2.70238068      -0.01066979       0.00000000
Si      -2.71604799      -2.71024875       0.01565939       0.00000000
Si      -2.71270854       2.72960127       0.05336623       0.00000000
Si       2.72384911       2.72028339       0.00530727       0.00000000
Si       0.00032580      -2.70980892       2.74799674       0.00000000
Si       2.71570590       0.00434943       2.74768597       0.00000000
