10
Lattice="16.28999089631971 0.0 0.0 0.0 16.28999089631971 0.0 0.0 0.0 34.5300574570662" Properties=species:S:1:pos:R:3:initial_magmoms:R:1 pbc="T T T"
Si       1.15774659       1.56535497       1.31511250       0.00000000
Si       1.32379056      -1.32843321      -1.47940661       0.00000000
Si      -1.32444379      -1.21160133       1.61372861       0.00000000
Si      -1.39386362       1.38466629      -1.45820514       0.00000000
Si       2.59177158      -2.69641854      -0.04309354       0.00000000
Si      -2.74422782      -2.59682148       0.02589756       0.00000000
Si       2.62889649       2.75128326      -0.17303021       0.00000000
Si       1.02680757       0.72099540       3.61329629       0.00000000
Si       2.68064982       0.02588481      -2.85439426       0.00000000
Si      -0.03800457      -2.68768710      -2.84987082       0.00000000
