10
Lattice="16.28999089631971 0.0 0.0 0.0 16.28999089631971 0.0 0.0 0.0 34.5300574570662" Properties=species:S:1:pos:R:3:initial_magmoms:R:1 pbc="T T T"
Si      -1.97754084       0.55604286      -1.13628124       0.00000000
Si       1.90583130       1.32318783      -0.41543135       0.00000000
Si       1.24256440      -2.01238515      -0.21042629       0.00000000
Si      -0.47128599       0.96153354       2.23851582       0.00000000
Si      -1.77051123       2.48412726       0.24298815       0.00000000
Si       1.64107971       0.08679312       3.04178899       0.00000000
Si      -3.45782943      -0.79679277       0.09910132       0.00000000
Si       2.20891978      -1.95333390       1.99860084       0.00000000
Si       3.16948733       1.15196364       1.59939863       0.00000000
Si      -2.43825462      -2.85513201       0.89584831       0.00000000
