10
Lattice="16.28999089631971 0.0 0.0 0.0 16.28999089631971 0.0 0.0 0.0 34.5300574570662" Properties=species:S:1:pos:R:3:initial_magmoms:R:1 pbc="T T T"
Si       1.48711640       1.12963005       1.45785436       0.00000000
Si      -1.25244036      -1.55558097       1.34409847       0.00000000
Si      -1.43918892       1.31952258      -1.56031058       0.00000000
Si       0.90183462       0.61919919      -2.98916515       0.00000000
Si      -2.88797265      -1.01597472      -1.64888023       0.00000000
Si      -1.14833097      -0.48363381      -3.41378151       0.00000000
Si       0.06791122       2.45166129       2.88479597       0.00000000
Si      -2.78852220       2.63148660       0.06025498       0.00000000
Si      -2.65593789      -0.26862210       2.87948869       0.00000000
Si       3.19450877       2.27950857       0.16574437       0.00000000
