10
Lattice="16.28999089631971 0.0 0.0 0.0 16.28999089631971 0.0 0.0 0.0 34.5300574570662" Properties=species:S:1:pos:R:3:initial_magmoms:R:1 pbc="T T T"
Si       1.34084619       1.36995642       1.38710081       0.00000000
Si      -1.36767582      -1.35031068       1.38799859       0.00000000
Si      -1.48781457       1.28552535      -1.36448015       0.00000000
Si       1.50825852      -1.32734178      -1.53858080       0.00000000
Si       0.08027712       2.52503145      -2.61696166       0.00000000
Si      -0.14623533      -2.52602514      -2.82157830       0.00000000
Si       2.69376327       2.71221984       0.01795909       0.00000000
Si       2.71019809      -2.70585045       0.00296268       0.00000000
Si      -2.72635956      -2.69653257       0.05102164       0.00000000
Si       2.70189817       0.01042560       2.74658446       0.00000000
