10
Lattice="16.28999089631971 0.0 0.0 0.0 16.28999089631971 0.0 0.0 0.0 34.5300574570662" Properties=species:S:1:pos:R:3:initial_magmoms:R:1 pbc="T T T"
Si       1.35651132       1.35565380       1.35754997       0.00000000
Si      -1.35689184      -1.35627282       1.35717014       0.00000000
Si       1.35739913      -1.35694071      -1.35792980       0.00000000
Si      -1.35814617       1.35778779      -1.35799886       0.00000000
Si      -2.71423980       0.00074934       2.71068009       0.00000000
Si       2.71028852       0.00408879       2.71689550       0.00000000
Si       2.71454021      -2.71445157      -0.00017265       0.00000000
Si      -2.71476108      -2.71423980       0.00055248       0.00000000
Si       2.71480085       2.71560816       0.00027624       0.00000000
Si      -2.71503801       2.71541268      -0.00010359       0.00000000
