10
Lattice="16.28999089631971 0.0 0.0 0.0 16.28999089631971 0.0 0.0 0.0 34.5300574570662" Properties=species:S:1:pos:R:3:initial_magmoms:R:1 pbc="T T T"
Si      -1.27088064       1.30259727      -1.44239037       0.00000000
Si      -1.42877961      -1.29303504       1.47035973       0.00000000
Si       0.82359864       1.93420944       1.26708117       0.00000000
Si       1.47256454      -1.40843340      -1.40447634       0.00000000
Si       0.92977034       0.59834799       3.30905179       0.00000000
Si       0.42254372      -1.94711112       3.07207187       0.00000000
Si      -2.70234810       2.57953779      -0.00569746       0.00000000
Si      -2.53777023      -2.75323806      -0.05694010       0.00000000
Si      -2.59721244      -0.05307282      -2.80363505       0.00000000
Si       0.11784186       2.65981491      -2.79265449       0.00000000
