10
Lattice="16.28999089631971 0.0 0.0 0.0 16.28999089631971 0.0 0.0 0.0 34.5300574570662" Properties=species:S:1:pos:R:3:initial_magmoms:R:1 pbc="T T T"
Si       0.25721910       2.05713934      -1.06128191       0.00000000
Si       1.67783742       0.04440654       1.68824451       0.00000000
Si       0.85869477      -1.83111003      -1.27433248       0.00000000
Si      -2.26668834       0.04282641       0.93687004       0.00000000
Si      -2.27175453      -2.19366027       1.73693192       0.00000000
Si       0.99768105       1.77810304       3.07089785       0.00000000
Si       2.96271117      -1.12819653      -1.92881556       0.00000000
Si      -1.58286672       2.19104802      -2.59196568       0.00000000
Si       1.40331834      -1.75399317       3.13284480       0.00000000
Si      -0.38030634       3.93459605       0.19371373       0.00000000
