10
Lattice="16.28999089631971 0.0 0.0 0.0 16.28999089631971 0.0 0.0 0.0 34.5300574570662" Properties=species:S:1:pos:R:3:initial_magmoms:R:1 pbc="T T T"
Si       1.87989043       0.17435187       1.36034690       0.00000000
Si       1.11414641       0.35693019      -2.05298571       0.00000000
Si      -0.26529079      -2.39463000       0.04385320       0.00000000
Si      -1.62121242       1.78267986       0.22530875       0.00000000
Si       0.59716208       2.60234379      -2.19210739       0.00000000
Si      -1.78945554       2.58162291      -1.90661272       0.00000000
Si      -2.52957540      -2.63653650       0.79588374       0.00000000
Si       3.63982945      -0.89445132       0.17579262       0.00000000
Si       2.95345031       2.25603468       0.99643442       0.00000000
Si       3.47544706       0.42044490      -1.81358869       0.00000000
