10
Lattice="16.28999089631971 0.0 0.0 0.0 16.28999089631971 0.0 0.0 0.0 34.5300574570662" Properties=species:S:1:pos:R:3:initial_magmoms:R:1 pbc="T T T"
Si       1.35965951       1.35138582      -1.35796433       0.00000000
Si       1.35420236      -1.35575154       1.35938006       0.00000000
Si      -1.35968625       1.35751086       1.35948365       0.00000000
Si      -1.36814076      -1.36756179      -1.36890000       0.00000000
Si       2.59162334      -0.09166383      -2.76324177       0.00000000
Si       2.71049147      -2.71147050      -0.00065607       0.00000000
Si       2.70731492       2.71863714       0.00345301       0.00000000
Si       2.71089872       0.00182448       2.71768969       0.00000000
Si      -0.00278885      -2.71332756       2.71741345       0.00000000
Si      -2.72105784      -2.70982521       0.00024171       0.00000000
