10
Lattice="16.28999089631971 0.0 0.0 0.0 16.28999089631971 0.0 0.0 0.0 34.5300574570662" Properties=species:S:1:pos:R:3:initial_magmoms:R:1 pbc="T T T"
Si       1.39919697      -1.29832929      -1.32688726       0.00000000
Si      -1.61925532      -1.01828790       1.32136245       0.00000000
Si       1.38574143       1.25703155       1.40520147       0.00000000
Si      -1.34388265       1.46018740      -1.31176309       0.00000000
Si      -2.35489217       0.92650908       2.50995675       0.00000000
Si      -0.32715207       2.23760159       2.86299225       0.00000000
Si       0.02552643      -2.62141938      -2.69745507       0.00000000
Si      -2.69235323       0.09928755      -2.69044546       0.00000000
Si      -2.75515118      -2.63826324       0.02555226       0.00000000
Si       2.73802320       0.09635535      -2.68934050       0.00000000
