10
Lattice="16.28999089631971 0.0 0.0 0.0 16.28999089631971 0.0 0.0 0.0 34.5300574570662" Properties=species:S:1:pos:R:3:initial_magmoms:R:1 pbc="T T T"
Si       0.51698433      -2.24541360       0.13912168       0.00000000
Si      -0.32272934       0.51912972      -2.24997980       0.00000000
Si      -2.38661762      -0.02072088       0.28549467       0.00000000
Si       0.75460656       1.14214077       2.21065004       0.00000000
Si      -1.05836619       2.46392670      -1.06138550       0.00000000
Si      -2.21837450      -0.81966393       2.41741614       0.00000000
Si      -0.59716208      -2.60234379       2.19210739       0.00000000
Si       2.87828499      -2.18189889       0.37851870       0.00000000
Si      -2.88478211       2.27387127       0.43279998       0.00000000
Si      -1.25393041       1.07867493       3.44468593       0.00000000
