10
Lattice="16.28999089631971 0.0 0.0 0.0 16.28999089631971 0.0 0.0 0.0 34.5300574570662" Properties=species:S:1:pos:R:3:initial_magmoms:R:1 pbc="T T T"
Si       1.61925532       1.01828790      -1.32136245       0.00000000
Si       0.32272934      -0.51912972       2.24997980       0.00000000
Si      -1.13589585      -1.61997534      -1.29581019       0.00000000
Si      -0.73563685       1.94479698       1.18859430       0.00000000
Si      -2.06388828      -0.53985060       2.53547448       0.00000000
Si      -2.44711053      -0.23315877      -2.64514200       0.00000000
Si       0.27537268       2.47847530      -2.63312553       0.00000000
Si       0.83971366      -2.76454332       2.38910148       0.00000000
Si       3.00499675       2.27531945       0.08383903       0.00000000
Si       1.29210325       3.25588949       1.54162981       0.00000000
