10
Lattice="16.28999089631971 0.0 0.0 0.0 16.28999089631971 0.0 0.0 0.0 34.64500226677339" Properties=species:S:1:pos:R:3:initial_magmoms:R:1 pbc="T T T"
Si       0.43758198       0.10220346      -2.23581647       0.00000000
Si      -2.34009760      -0.10827963       0.33893225       0.00000000
Si       0.66603294       2.13100634       0.91161445       0.00000000
Si       0.65236563      -2.32717311       0.06752315       0.00000000
Si      -2.04543593       0.07776846       2.77683313       0.00000000
Si      -1.43980142       2.55622421       2.08982235       0.00000000
Si      -2.81178546      -2.33215785      -0.32115935       0.00000000
Si      -0.98116299      -3.24166113      -1.42799850       0.00000000
Si      -0.40640292      -1.85635953      -3.26217524       0.00000000
Si       2.46925449       1.19275380      -2.62591941       0.00000000
