10
Lattice="16.28999089631971 0.0 0.0 0.0 16.28999089631971 0.0 0.0 0.0 34.64500226677339" Properties=species:S:1:pos:R:3:initial_magmoms:R:1 pbc="T T T"
Si       1.35602847       1.35620766       1.35770375       0.00000000
Si      -1.35956340       1.35795069      -1.35718408       0.00000000
Si       1.35290079      -1.36083728      -1.36102967       0.00000000
Si      -1.35884664      -1.35907796       1.35766911       0.00000000
Si      -0.00065160       2.71339272       2.71485318       0.00000000
Si       2.71373481      -0.00167787       2.71481854       0.00000000
Si      -2.71498914       2.71365336      -0.00003465       0.00000000
Si       2.71536381       2.71409319       0.00097006       0.00000000
Si      -2.71464705      -2.71540358       0.00103935       0.00000000
Si      -2.71591767      -0.00205254       2.71485318       0.00000000
