10
Lattice="16.28999089631971 0.0 0.0 0.0 16.28999089631971 0.0 0.0 0.0 34.64500226677339" Properties=species:S:1:pos:R:3:initial_magmoms:R:1 pbc="T T T"
Si       1.35480672       1.35573688      -1.35635260       0.00000000
Si       1.35578412      -1.36077202       1.35680298       0.00000000
Si      -1.35948195       1.35286984       1.36113361       0.00000000
Si      -1.36014984      -1.35877671      -1.35659511       0.00000000
Si       2.71200807      -2.71330054       0.00083148       0.00000000
Si       2.71187775      -0.00128854      -2.71353667       0.00000000
Si      -0.00226431       2.71284049      -2.71381383       0.00000000
Si       2.71259451       2.71580527       0.00065826       0.00000000
Si      -0.00231318      -2.71690063      -2.71367525       0.00000000
Si      -2.71745056      -0.00141723      -2.71339809       0.00000000
