10
Lattice="16.28999089631971 0.0 0.0 0.0 16.28999089631971 0.0 0.0 0.0 34.64500226677339" Properties=species:S:1:pos:R:3:initial_magmoms:R:1 pbc="T T T"
Si      -1.56856410      -0.97019982       1.43808020       0.00000000
Si       1.32571278      -1.38492367      -1.39155194       0.00000000
Si      -1.37474568       1.36614456      -1.38545441       0.00000000
Si       1.77562629       0.97127496       1.26236065       0.00000000
Si      -2.58463656      -2.63303969       0.02958685       0.00000000
Si      -2.54223369       2.81062773       0.21407159       0.00000000
Si       2.74955652      -2.65970153       0.06087130       0.00000000
Si       0.25516656      -1.80934985       3.39102007       0.00000000
Si      -3.36970053       0.95301387       1.60648965       0.00000000
Si       2.68749162      -0.01423746      -2.76290583       0.00000000
