10
Lattice="16.28999089631971 0.0 0.0 0.0 16.28999089631971 0.0 0.0 0.0 34.64500226677339" Properties=species:S:1:pos:R:3:initial_magmoms:R:1 pbc="T T T"
Si      -0.38393901       2.22348726       0.65988373       0.00000000
Si      -2.17541547      -0.90383436       0.08824087       0.00000000
Si       1.51399260      -1.06507278       1.54586087       0.00000000
Si       0.51171777       0.45784674      -2.32305264       0.00000000
Si      -0.97278993       2.32582104      -1.69466123       0.00000000
Si      -1.42641756      -2.88459152      -1.05871722       0.00000000
Si      -0.23879511      -1.79732783      -2.90792989       0.00000000
Si       1.24916607       0.36357651       3.41128741       0.00000000
Si      -2.59566489      -1.08476739       2.42771525       0.00000000
Si       2.86537842       0.38553543      -2.61019057       0.00000000
