10
Lattice="16.28999089631971 0.0 0.0 0.0 16.28999089631971 0.0 0.0 0.0 34.64500226677339" Properties=species:S:1:pos:R:3:initial_magmoms:R:1 pbc="T T T"
Si       2.35366065      -0.07231131      -0.28713794       0.00000000
Si      -0.51171777      -0.45784674       2.32305264       0.00000000
Si      -0.75051288      -2.25517457      -0.58487726       0.00000000
Si      -1.48450770       1.86797430       0.62839140       0.00000000
Si       0.76994685       0.52545024      -2.71353667       0.00000000
Si      -0.89565678       1.76564052       2.98293636       0.00000000
Si       3.13479873       2.07852255       0.31973890       0.00000000
Si       2.62676250      -1.14561054      -2.55798053       0.00000000
Si       1.37218815      -3.57887132      -0.32105542       0.00000000
Si       3.19477851      -2.03744080       0.72061645       0.00000000
