10
Lattice="16.28999089631971 0.0 0.0 0.0 16.28999089631971 0.0 0.0 0.0 34.64500226677339" Properties=species:S:1:pos:R:3:initial_magmoms:R:1 pbc="T T T"
Si       1.00046664       2.11315672       0.45384978       0.00000000
Si       1.90053801      -1.01247793      -1.10528013       0.00000000
Si       0.42318162      -1.07623699       2.13898364       0.00000000
Si      -2.28825630       0.00877216      -0.97234718       0.00000000
Si       0.18829611      -3.12532351       0.86467045       0.00000000
Si       2.26062846       2.45749474      -1.58272317       0.00000000
Si       2.51550180      -2.72620222       0.44404524       0.00000000
Si       3.67591995       0.60922971      -1.27382816       0.00000000
Si      -2.48748300       1.13271375       2.85610094       0.00000000
Si      -2.52092637       1.81252477      -2.51754979       0.00000000
