10
Lattice="16.28999089631971 0.0 0.0 0.0 16.28999089631971 0.0 0.0 0.0 34.64500226677339" Properties=species:S:1:pos:R:3:initial_magmoms:R:1 pbc="T T T"
Si      -1.08843264      -1.49001113       1.53156775       0.00000000
Si       1.06834707      -1.06370183      -1.90135343       0.00000000
Si       1.61049456       1.21142703       1.40427502       0.00000000
Si      -1.84231755       1.14524890      -1.18423613       0.00000000
Si      -2.00497320      -3.25115561       0.33486843       0.00000000
Si       0.21255192       2.47926632       2.93639567       0.00000000
Si      -2.73763224       2.70919967       0.30577076       0.00000000
Si      -2.50084080      -0.23213602       2.94879512       0.00000000
Si       2.78107767       2.95550447       0.16591501       0.00000000
Si       0.64516545       0.01253515      -4.04033707       0.00000000
