10
Lattice="16.28999089631971 0.0 0.0 0.0 16.28999089631971 0.0 0.0 0.0 34.64500226677339" Properties=species:S:1:pos:R:3:initial_magmoms:R:1 pbc="T T T"
Si      -0.57075273      -1.89299574       1.21718354       0.00000000
Si      -1.33073010      -0.12883761      -1.99049507       0.00000000
Si       2.37840516      -0.40555584      -0.14942398       0.00000000
Si      -0.64213551       1.90953009       1.43742195       0.00000000
Si       0.67157154      -3.33933597      -0.34385184       0.00000000
Si      -0.16415433      -1.04379804       3.47963579       0.00000000
Si      -2.78537823      -2.37299688       0.54777244       0.00000000
Si      -1.94259879       2.17680012      -2.33801928       0.00000000
Si      -3.05634609       1.88294481       1.17952441       0.00000000
Si       2.52011187      -2.64251493       0.98915001       0.00000000
