10
Lattice="16.28999089631971 0.0 0.0 0.0 16.28999089631971 0.0 0.0 0.0 34.64500226677339" Properties=species:S:1:pos:R:3:initial_magmoms:R:1 pbc="T T T"
Si      -1.35506736      -1.35615879       1.35753053       0.00000000
Si       1.35772263      -1.35721764      -1.35798091       0.00000000
Si      -1.35840681       1.35855342      -1.35759982       0.00000000
Si       1.35752715       1.35971001       1.35739195       0.00000000
Si       0.00071676      -2.71389771      -2.71488783       0.00000000
Si       2.71505430      -2.71415835       0.00000000       0.00000000
Si      -2.71536381      -2.71458189       0.00031181       0.00000000
Si      -2.71546155       0.00210141      -2.71454138       0.00000000
Si      -0.00275301      -2.71554300       2.71461067       0.00000000
Si      -0.00013032       2.71648782      -2.71416028       0.00000000
