10
Lattice="16.28999089631971 0.0 0.0 0.0 16.28999089631971 0.0 0.0 0.0 34.64500226677339" Properties=species:S:1:pos:R:3:initial_magmoms:R:1 pbc="T T T"
Si       1.35747828       1.35682668       1.35649118       0.00000000
Si      -1.35808101       1.35278676      -1.36047535       0.00000000
Si      -1.35827649      -1.35793440       1.35656047       0.00000000
Si       1.35637056      -1.35798327      -1.36428631       0.00000000
Si      -0.00008145       2.71415835       2.71398706       0.00000000
Si      -2.71357191       2.71544526      -0.00093542       0.00000000
Si      -2.71518462      -0.00057015       2.71398706       0.00000000
Si       2.71520091      -0.00052128       2.71412564       0.00000000
Si      -2.71533123      -2.71438641      -0.00038110       0.00000000
Si       0.00013032      -2.71648782       2.71416028       0.00000000
