10
Lattice="16.28999089631971 0.0 0.0 0.0 16.28999089631971 0.0 0.0 0.0 34.64500226677339" Properties=species:S:1:pos:R:3:initial_magmoms:R:1 pbc="T T T"
Si       1.61543043       1.13622750       1.24895026       0.00000000
Si      -1.12783163      -1.53769618       1.35101796       0.00000000
Si       0.89531469      -1.56395077      -1.49000689       0.00000000
Si      -0.15032412       2.22027813      -1.92178780       0.00000000
Si       0.92631456       0.38283129      -3.00063377       0.00000000
Si       0.23617242       2.51595792       2.61583494       0.00000000
Si      -2.48072245      -0.20030184       2.65779353       0.00000000
Si      -1.13355757      -2.94880670      -1.82336129       0.00000000
Si      -2.74338980      -2.45927524      -0.08466624       0.00000000
Si       2.73763224      -2.70919967      -0.30577076       0.00000000
