10
Lattice="16.28999089631971 0.0 0.0 0.0 16.28999089631971 0.0 0.0 0.0 34.64500226677339" Properties=species:S:1:pos:R:3:initial_magmoms:R:1 pbc="T T T"
Si      -1.63896948      -0.72433485       1.50456400       0.00000000
Si      -0.87829164      -1.00799262      -1.94996040       0.00000000
Si       0.54061623       2.26742858      -0.59644869       0.00000000
Si       1.60322922      -1.23575940       1.33168534       0.00000000
Si      -1.33568226      -3.07452573       1.00515601       0.00000000
Si       2.80357416       2.03448646      -1.34169775       0.00000000
Si       1.93075596       0.19629450       3.24003707       0.00000000
Si       0.95329080      -1.70088777      -3.26002725       0.00000000
Si      -1.71367542      -3.11526702      -1.38209385       0.00000000
Si       3.38507829      -1.84060710      -0.05945086       0.00000000
