10
Lattice="16.28999089631971 0.0 0.0 0.0 16.28999089631971 0.0 0.0 0.0 34.64500226677339" Properties=species:S:1:pos:R:3:initial_magmoms:R:1 pbc="T T T"
Si       2.17541547       0.90383436      -0.08824087       0.00000000
Si      -0.42024942      -0.18093303       2.33947438       0.00000000
Si       0.74899791      -1.98075716      -1.14695809       0.00000000
Si      -1.84738374       1.31041647      -0.94826889       0.00000000
Si       1.79147646       3.12732162       0.57164286       0.00000000
Si       1.93662036      -0.89349347      -2.99617076       0.00000000
Si      -2.90409323      -0.04168611      -2.49991547       0.00000000
Si      -3.15547888       2.00104731       0.96327018       0.00000000
Si       2.68713324       1.36168110      -2.41129351       0.00000000
Si       1.20262554       3.22965540      -1.78290210       0.00000000
