10
Lattice="16.28999089631971 0.0 0.0 0.0 16.28999089631971 0.0 0.0 0.0 34.64500226677339" Properties=species:S:1:pos:R:3:initial_magmoms:R:1 pbc="T T T"
Si      -1.35290079       1.36083728       1.36102967       0.00000000
Si       1.36371735      -1.35593466       1.36106432       0.00000000
Si      -1.34864910      -1.34385349      -1.39165587       0.00000000
Si       1.38582288       1.35707429      -1.38110993       0.00000000
Si       0.23571630      -2.53951719      -2.77548197       0.00000000
Si      -2.71174743       0.00175932       2.71869878       0.00000000
Si      -2.71246419       2.71878797       0.00384560       0.00000000
Si       2.71658556      -2.71523742       0.00291018       0.00000000
Si      -2.71345788      -2.71890267       0.00311805       0.00000000
Si       0.00394218      -2.71404825       2.71845627       0.00000000
