10
Lattice="16.28999089631971 0.0 0.0 0.0 16.28999089631971 0.0 0.0 0.0 34.64500226677339" Properties=species:S:1:pos:R:3:initial_magmoms:R:1 pbc="T T T"
Si       1.34933328      -1.35659603       1.35839665       0.00000000
Si       1.35529542       1.35778127      -1.35728801       0.00000000
Si      -1.35940050      -1.35738570      -1.35728801       0.00000000
Si      -1.36001952       1.35810707       1.36421702       0.00000000
Si       0.01257588      -2.69276699       2.73002770       0.00000000
Si       2.71339272       0.00007005      -2.71454138       0.00000000
Si       2.71581993      -2.71255934       0.00027716       0.00000000
Si      -2.71715571      -2.71163081      -0.00006929       0.00000000
Si      -0.00241092       2.71566680      -2.71440280       0.00000000
Si      -0.00159642      -2.71542638      -2.71467996       0.00000000
