10
Lattice="16.28999089631971 0.0 0.0 0.0 16.28999089631971 0.0 0.0 0.0 34.64500226677339" Properties=species:S:1:pos:R:3:initial_magmoms:R:1 pbc="T T T"
Si      -1.46505744       1.16142813      -1.46908750       0.00000000
Si       1.23139368      -1.55422564      -1.47036936       0.00000000
Si      -1.88830422      -0.90016911       1.33896080       0.00000000
Si       1.15175187       1.77345972       1.30535512       0.00000000
Si      -0.12341304       2.50100370      -2.84761291       0.00000000
Si      -2.81134449       2.57346162      -0.05879260       0.00000000
Si       2.76017760       2.66124843      -0.10674131       0.00000000
Si       2.59677261      -0.21664071      -2.84439092       0.00000000
Si       2.61768897      -2.88554968      -0.09828793       0.00000000
Si      -2.77118964      -2.86008482      -0.01808470       0.00000000
