10
Lattice="16.28999089631971 0.0 0.0 0.0 16.28999089631971 0.0 0.0 0.0 34.64500226677339" Properties=species:S:1:pos:R:3:initial_magmoms:R:1 pbc="T T T"
Si      -0.27386259      -1.18555362      -2.03539502       0.00000000
Si       0.15185212      -1.86823494       1.47972352       0.00000000
Si      -2.03484647       0.96809841       0.83258916       0.00000000
Si       2.13634553       1.00835100      -0.60254622       0.00000000
Si       3.43964327      -0.92756889      -0.90059734       0.00000000
Si       1.94176148      -1.98821079      -2.50545867       0.00000000
Si      -3.44132507      -1.01977029       1.06536906       0.00000000
Si      -1.98685613      -2.19928032       2.50438468       0.00000000
Si       1.93008155      -1.57050261       2.98757880       0.00000000
Si      -2.75445722       2.68783371      -0.64017071       0.00000000
