10
Lattice="16.28999089631971 0.0 0.0 0.0 16.28999089631971 0.0 0.0 0.0 34.64500226677339" Properties=species:S:1:pos:R:3:initial_magmoms:R:1 pbc="T T T"
Si       1.47367485      -0.71177526       1.77458730       0.00000000
Si      -2.05100874      -1.28267460      -0.06295000       0.00000000
Si      -1.08748782       2.16591840       0.18434616       0.00000000
Si       1.56444273      -0.11152134      -1.88337267       0.00000000
Si      -2.57520465       2.09046312      -1.68977628       0.00000000
Si       3.66956685      -0.74950290       0.79070333       0.00000000
Si      -3.39250653      -0.26959950      -1.79655224       0.00000000
Si       1.24216137       0.83530233       3.56867974       0.00000000
Si       3.15977130      -1.84756945      -1.30521654       0.00000000
Si       0.50578821       3.89728476      -0.12271267       0.00000000
