10
Lattice="16.28999089631971 0.0 0.0 0.0 16.28999089631971 0.0 0.0 0.0 34.64500226677339" Properties=species:S:1:pos:R:3:initial_magmoms:R:1 pbc="T T T"
Si      -0.21007584      -2.19663224       0.71282132       0.00000000
Si       0.42024942       0.18093303      -2.33947438       0.00000000
Si      -2.21562408       0.80265717       0.47006365       0.00000000
Si       1.49788179       1.06064190       1.60486134       0.00000000
Si       0.19458405       2.99656179       1.90291246       0.00000000
Si      -1.34767170      -1.88217008       2.80486095       0.00000000
Si       2.59566489       1.08476739      -2.42771525       0.00000000
Si      -1.94176148       1.98821079       2.50545867       0.00000000
Si       1.93007178      -2.97206882       1.21915831       0.00000000
Si      -2.73522947       2.18198034      -1.37620419       0.00000000
