10
Lattice="16.28999089631971 0.0 0.0 0.0 16.28999089631971 0.0 0.0 0.0 34.64500226677339" Properties=species:S:1:pos:R:3:initial_magmoms:R:1 pbc="T T T"
Si      -1.34164440      -1.33957557       1.37852541       0.00000000
Si      -1.34855136       1.35842310      -1.35929742       0.00000000
Si       1.36495539      -1.35596331      -1.35843130       0.00000000
Si       1.37073834       1.37670048       1.38292533       0.00000000
Si       0.12341304      -2.50100370       2.84761291       0.00000000
Si      -2.70785412       2.71137276       0.00284089       0.00000000
Si      -2.70891297      -0.00087966      -2.71571931       0.00000000
Si      -2.70984150      -2.71562445       0.00575107       0.00000000
Si       0.00578295       2.71388142      -2.71558073       0.00000000
Si       2.71652040       2.71394658       0.00117793       0.00000000
