10
Lattice="16.28999089631971 0.0 0.0 0.0 16.28999089631971 0.0 0.0 0.0 34.64500226677339" Properties=species:S:1:pos:R:3:initial_magmoms:R:1 pbc="T T T"
Si       1.34056926       1.33661079       1.37341873       0.00000000
Si      -1.37689596      -1.37868786       1.37428486       0.00000000
Si       1.46518776      -1.28383119      -1.38353508       0.00000000
Si      -1.28368458       1.40558265      -1.46934387       0.00000000
Si      -2.00479401      -0.40171140      -2.90640001       0.00000000
Si      -0.10793754      -2.23643781      -2.92916179       0.00000000
Si       2.71254564       2.69949735      -0.03953343       0.00000000
Si      -2.73302217       2.69187363      -0.01705574       0.00000000
Si      -0.01221750       2.69695611       2.73541847       0.00000000
Si       2.70176166      -0.01827738       2.73590350       0.00000000
