10
Lattice="16.28999089631971 0.0 0.0 0.0 16.28999089631971 0.0 0.0 0.0 34.64500226677339" Properties=species:S:1:pos:R:3:initial_magmoms:R:1 pbc="T T T"
Si      -1.35482301      -1.35394335       1.38780681       0.00000000
Si       1.36265850       1.36078515       1.38822255       0.00000000
Si       1.44933759      -1.28629098      -1.45228813       0.00000000
Si      -1.17390627       1.53052695      -1.49841797       0.00000000
Si       2.43985104       0.57304962      -2.78457772       0.00000000
Si       0.73513512       2.45293191      -2.77515427       0.00000000
Si      -2.70233181      -2.71288773      -0.01872563       0.00000000
Si       2.73302217      -2.69187363       0.01705574       0.00000000
Si      -2.68835499       2.73667113       0.00984958       0.00000000
Si       2.72813517       2.73101850       0.02857868       0.00000000
