10
Lattice="16.28999089631971 0.0 0.0 0.0 16.28999089631971 0.0 0.0 0.0 34.64500226677339" Properties=species:S:1:pos:R:3:initial_magmoms:R:1 pbc="T T T"
Si       1.35930276      -1.35294966      -1.36213832       0.00000000
Si      -1.35858600       1.36161594      -1.36116825       0.00000000
Si      -1.37474568      -1.34982198       1.37492233       0.00000000
Si       1.37652129       1.37629323       1.37128460       0.00000000
Si      -2.56779270       0.19912896       2.81023093       0.00000000
Si       2.70785412      -2.71137276      -0.00284089       0.00000000
Si       0.01992267      -2.63891484       2.78597941       0.00000000
Si       2.70824508       2.71912680      -0.00457314       0.00000000
Si      -0.00105885      -2.71225242      -2.71856020       0.00000000
Si       2.71363707       0.00250866      -2.71842162       0.00000000
