10
Lattice="16.28999089631971 0.0 0.0 0.0 16.28999089631971 0.0 0.0 0.0 34.64500226677339" Properties=species:S:1:pos:R:3:initial_magmoms:R:1 pbc="T T T"
Si      -1.33172379      -1.34283357       1.37585774       0.00000000
Si      -1.34952876       1.35624024      -1.35673369       0.00000000
Si       1.36572102      -1.35593073      -1.35680298       0.00000000
Si       1.35135324       1.37689596       1.37298221       0.00000000
Si       0.14765256      -2.46935223       2.89632381       0.00000000
Si      -2.60798013       0.10687869       2.78199524       0.00000000
Si      -2.70837540       2.71158453       0.00630539       0.00000000
Si      -2.70928764      -0.00125433      -2.71402170       0.00000000
Si      -2.70824508      -2.71912680       0.00457314       0.00000000
Si       0.00529425       2.71360449      -2.71384848       0.00000000
