10
Lattice="16.28999089631971 0.0 0.0 0.0 16.28999089631971 0.0 0.0 0.0 34.64500226677339" Properties=species:S:1:pos:R:3:initial_magmoms:R:1 pbc="T T T"
Si      -1.23877305      -1.37231847       1.46215849       0.00000000
Si       2.29146543       0.09541053       0.59398890       0.00000000
Si      -0.23969106      -1.29658626      -1.97819609       0.00000000
Si      -0.13563054       2.41443864      -0.36789548       0.00000000
Si       1.80763614       2.67292836      -1.76585675       0.00000000
Si       3.30623469       0.90295470      -1.34938895       0.00000000
Si       2.27675556       1.87426224       2.24021639       0.00000000
Si      -1.31155677      -0.31662873       3.55378238       0.00000000
Si       0.55900764       3.39882705       1.63119155       0.00000000
Si       3.14328582      -2.09420982       0.93995408       0.00000000
