10
Lattice="16.28999089631971 0.0 0.0 0.0 16.28999089631971 0.0 0.0 0.0 34.64500226677339" Properties=species:S:1:pos:R:3:initial_magmoms:R:1 pbc="T T T"
Si       1.97260497      -1.12184343      -0.67304884       0.00000000
Si       0.23969106       1.29658626       1.97819609       0.00000000
Si      -1.33833753      -2.04211440      -0.05151715       0.00000000
Si      -2.05918632       0.68364243      -1.12204832       0.00000000
Si      -0.99908199      -0.07573221       3.44035458       0.00000000
Si       1.27412235       2.77788483      -2.01800322       0.00000000
Si       3.50593380       0.53269929      -1.14338965       0.00000000
Si       1.25283132      -2.80807020      -2.19808804       0.00000000
Si       2.89637829      -2.27893842       1.09713854       0.00000000
Si       2.53115649       1.39199679       2.57218499       0.00000000
