10
Lattice="16.28999089631971 0.0 0.0 0.0 16.28999089631971 0.0 0.0 0.0 34.64500226677339" Properties=species:S:1:pos:R:3:initial_magmoms:R:1 pbc="T T T"
Si      -1.35289082       1.33739434       1.30677557       0.00000000
Si       1.12783163       1.53769618      -1.35101796       0.00000000
Si       1.36462307      -1.40363951       1.29200640       0.00000000
Si      -1.61555816      -0.92157906      -1.43568419       0.00000000
Si      -0.00572594      -1.41111052      -3.17437925       0.00000000
Si       2.02314632      -0.02625459      -2.84102485       0.00000000
Si      -2.61537320      -2.59822798      -0.08585383       0.00000000
Si      -3.27637253       0.92245546      -1.51748109       0.00000000
Si       0.00105396       2.67398884       2.65240900       0.00000000
Si      -2.58851099       2.76216661      -0.13279437       0.00000000
