10
Lattice="16.28999089631971 0.0 0.0 0.0 16.28999089631971 0.0 0.0 0.0 34.64500226677339" Properties=species:S:1:pos:R:3:initial_magmoms:R:1 pbc="T T T"
Si      -1.81337022      -0.97326234       1.19182339       0.00000000
Si      -1.48010940       1.14336252      -1.49309650       0.00000000
Si       1.20888090      -1.57273434      -1.49340830       0.00000000
Si       1.42895880       1.30974858       1.56508885       0.00000000
Si      -0.21235644      -1.89418491       2.65841644       0.00000000
Si       2.59823871       2.52330766      -0.11533328       0.00000000
Si      -2.79063990       2.54877251      -0.03513005       0.00000000
Si      -0.14335200       2.47953348      -2.86472755       0.00000000
Si       2.57805540      -0.23747562      -2.86413858       0.00000000
Si       2.65882122      -2.80987839      -0.15597189       0.00000000
