10
Lattice="16.28999089631971 0.0 0.0 0.0 16.28999089631971 0.0 0.0 0.0 34.64500226677339" Properties=species:S:1:pos:R:3:initial_magmoms:R:1 pbc="T T T"
Si       1.49859855      -1.76997366       0.41646780       0.00000000
Si      -1.94326668      -0.25848972       1.39796127       0.00000000
Si       1.34276841       1.99071945      -0.21206218       0.00000000
Si      -0.77320485      -1.19162979      -2.23034256       0.00000000
Si       0.48382929      -2.57751783       2.35984565       0.00000000
Si      -1.80763614      -2.67292836       1.76585675       0.00000000
Si      -1.24862850       0.72589869       3.39704831       0.00000000
Si      -3.68041599       0.86561802       0.19647192       0.00000000
Si       3.47319090      -0.88016499       1.34017337       0.00000000
Si       1.61414352       3.02873454       1.87873023       0.00000000
