10
Lattice="16.28999089631971 0.0 0.0 0.0 16.28999089631971 0.0 0.0 0.0 34.64500226677339" Properties=species:S:1:pos:R:3:initial_magmoms:R:1 pbc="T T T"
Si       1.35273789       1.33793028       1.38326139       0.00000000
Si       1.37925801      -1.37973042      -1.36688468       0.00000000
Si      -1.36295009      -1.37966526       1.38759201       0.00000000
Si      -1.32316991       1.49174046      -1.52022008       0.00000000
Si      -0.23617242      -2.51595792      -2.61583494       0.00000000
Si      -2.71299266       2.70140328       0.00531801       0.00000000
Si       2.72117934       2.69320941      -0.02354822       0.00000000
Si      -2.71689487      -2.71625976       0.04195859       0.00000000
Si      -0.00301365       2.69575065       2.74688944       0.00000000
Si       2.71316466      -0.02024847       2.74654299       0.00000000
