10
Lattice="16.28999089631971 0.0 0.0 0.0 16.28999089631971 0.0 0.0 0.0 34.64500226677339" Properties=species:S:1:pos:R:3:initial_magmoms:R:1 pbc="T T T"
Si      -1.74643461      -0.18150318       1.64051106       0.00000000
Si       0.80277024       2.27219436       0.04843374       0.00000000
Si      -0.37797687      -0.75913029      -2.25646490       0.00000000
Si       1.66579652      -1.50888731       0.95013972       0.00000000
Si       3.21153182       1.78569351      -0.24154509       0.00000000
Si      -1.06499133      -3.00054374      -1.90925250       0.00000000
Si       1.76073138      -0.42808491      -3.28112606       0.00000000
Si      -0.39918645       3.39802884      -1.73661635       0.00000000
Si      -2.64588696      -2.37305294       1.62225314       0.00000000
Si       3.53896082      -0.13035258      -1.77327079       0.00000000
