10
Lattice="16.28999089631971 0.0 0.0 0.0 16.28999089631971 0.0 0.0 0.0 34.64500226677339" Properties=species:S:1:pos:R:3:initial_magmoms:R:1 pbc="T T T"
Si       1.61555816       0.92157906       1.43568419       0.00000000
Si      -0.99981504      -1.67664892       1.34983036       0.00000000
Si       1.60983223      -0.48953146      -1.73869506       0.00000000
Si      -1.66081437       1.84403452      -0.08179690       0.00000000
Si      -1.24600581      -2.39065591      -2.31896452       0.00000000
Si       0.26266735       2.25897340       2.74245976       0.00000000
Si      -2.66126472      -2.54208775      -0.09911941       0.00000000
Si       2.74338980       2.45927524       0.08466624       0.00000000
Si      -2.44470546      -0.46625305       2.74257756       0.00000000
Si      -3.53103669       1.04522341       1.30867554       0.00000000
