10
Lattice="16.28999089631971 0.0 0.0 0.0 16.28999089631971 0.0 0.0 0.0 34.64500226677339" Properties=species:S:1:pos:R:3:initial_magmoms:R:1 pbc="T T T"
Si      -1.35694071      -1.34359920       1.36872780       0.00000000
Si      -1.23411411       1.46484567      -1.38923072       0.00000000
Si       1.36150191       1.37233476       1.36623336       0.00000000
Si       1.48164066      -1.25703414      -1.41554015       0.00000000
Si       0.51526899       2.25179928      -2.84221664       0.00000000
Si       2.30311278       0.47208420      -2.82122176       0.00000000
Si      -2.68895772      -2.70321147      -0.01349077       0.00000000
Si       2.71726084      -2.68180641       0.02402979       0.00000000
Si       0.00236205      -2.70093087       2.72996534       0.00000000
Si      -2.71231758       0.01464471       2.72961889       0.00000000
