10
Lattice="16.28999089631971 0.0 0.0 0.0 16.28999089631971 0.0 0.0 0.0 34.64500226677339" Properties=species:S:1:pos:R:3:initial_magmoms:R:1 pbc="T T T"
Si      -0.73054134       1.12583448      -1.93655277       0.00000000
Si      -1.44712215      -1.86176781      -0.05387301       0.00000000
Si       2.22668729      -0.67075704       0.45052386       0.00000000
Si      -0.54369504       0.81158409       2.20498240       0.00000000
Si      -3.37848084      -0.68813847       0.72789190       0.00000000
Si       3.43674107       1.34553771       0.39755162       0.00000000
Si       2.11948768      -1.62399897       2.60073248       0.00000000
Si      -0.62338572      -0.61932951      -3.68404766       0.00000000
Si      -2.76892533       2.12349924      -1.51263629       0.00000000
Si       0.29181906       2.98023921       2.43336238       0.00000000
