10
Lattice="16.28999089631971 0.0 0.0 0.0 16.28999089631971 0.0 0.0 0.0 34.64500226677339" Properties=species:S:1:pos:R:3:initial_magmoms:R:1 pbc="T T T"
Si      -1.64965572       1.70566074       0.09028493       0.00000000
Si      -1.28262573      -1.92554316       0.55490931       0.00000000
Si       1.50936624       1.14407928       1.52344554       0.00000000
Si       1.14526845      -0.91849536      -2.05129709       0.00000000
Si      -2.14503462      -2.00282292      -1.67529467       0.00000000
Si      -0.54600822       3.17664774      -1.37793645       0.00000000
Si       3.06633090       2.12389020       0.04479601       0.00000000
Si      -1.03260681       1.69533288      -3.19894807       0.00000000
Si       2.22897699      -0.57565602       2.99620541       0.00000000
Si      -2.75695218       0.15522741      -2.61368972       0.00000000
