10
Lattice="16.28999089631971 0.0 0.0 0.0 16.28999089631971 0.0 0.0 0.0 34.64500226677339" Properties=species:S:1:pos:R:3:initial_magmoms:R:1 pbc="T T T"
Si       1.36283471      -1.35374787       1.36470205       0.00000000
Si      -1.35474156       1.36404315       1.36421702       0.00000000
Si      -1.34363178      -1.35006633      -1.41011128       0.00000000
Si       1.36559070       1.36164852      -1.38145984       0.00000000
Si       2.71546222      -2.71285515       0.00685971       0.00000000
Si      -2.71560816      -2.71295289       0.00284089       0.00000000
Si      -2.71507059       2.71622718       0.00564714       0.00000000
Si       0.00236205      -2.71223613       2.72108929       0.00000000
Si       2.71902647       2.71552671       0.00297947       0.00000000
Si      -2.71360449       0.00364896       2.72143574       0.00000000
