10
Lattice="16.28999089631971 0.0 0.0 0.0 16.28999089631971 0.0 0.0 0.0 34.64500226677339" Properties=species:S:1:pos:R:3:initial_magmoms:R:1 pbc="T T T"
Si      -1.35479043      -1.35625653      -1.35659511       0.00000000
Si      -1.35700587       1.35703845       1.35732266       0.00000000
Si       1.35819504      -1.35811359       1.35718408       0.00000000
Si       1.35886293       1.36039419      -1.35721872       0.00000000
Si      -2.71182888      -0.00032580       2.71443744       0.00000000
Si       0.00342090      -2.71249677       2.71436815       0.00000000
Si      -2.71410948       2.71376739      -0.00024252       0.00000000
Si      -0.00146610       2.71257822      -2.71578860       0.00000000
Si      -2.71441899      -2.71554300      -0.00048503       0.00000000
Si       2.71544526       2.71463076       0.00038110       0.00000000
