10
Lattice="16.28999089631971 0.0 0.0 0.0 16.28999089631971 0.0 0.0 0.0 34.64500226677339" Properties=species:S:1:pos:R:3:initial_magmoms:R:1 pbc="T T T"
Si      -0.41917428      -0.62426538      -2.24319586       0.00000000
Si       0.89945235       2.19154976       0.01825793       0.00000000
Si       1.33358085      -1.72309104       1.06450293       0.00000000
Si      -2.34908316       0.10177992       1.20928448       0.00000000
Si      -1.10802951      -2.84449464      -1.67671511       0.00000000
Si      -2.93430141       1.96953335      -0.12898342       0.00000000
Si       0.45644580      -3.63666105      -0.05314546       0.00000000
Si      -1.09628442       3.47863895      -0.40784119       0.00000000
Si      -0.08167806      -1.87452288       3.28434805       0.00000000
Si       2.64588696       2.37305294      -1.62225314       0.00000000
