10
Lattice="16.28999089631971 0.0 0.0 0.0 16.28999089631971 0.0 0.0 0.0 34.64500226677339" Properties=species:S:1:pos:R:3:initial_magmoms:R:1 pbc="T T T"
Si       1.21005378       2.01629475      -0.05297224       0.00000000
Si      -0.10719960      -0.95324193       2.15020862       0.00000000
Si      -2.22668729       0.67075704      -0.45052386       0.00000000
Si       0.93271653      -1.85334588      -1.45419014       0.00000000
Si      -2.77038233       1.48234113       1.75445854       0.00000000
Si      -1.10220583      -3.06269919       1.75826949       0.00000000
Si       1.35169533       2.35755396      -2.52260796       0.00000000
Si       2.10375576      -1.18677537       2.88166896       0.00000000
Si       0.20588931      -3.75333003      -0.15326958       0.00000000
Si      -1.50623042       0.41117589       3.52111213       0.00000000
