10
Lattice="16.28999089631971 0.0 0.0 0.0 16.28999089631971 0.0 0.0 0.0 34.64500226677339" Properties=species:S:1:pos:R:3:initial_magmoms:R:1 pbc="T T T"
Si      -1.68504900       0.55200294      -1.61172105       0.00000000
Si       0.69542010       2.31821361       0.42228817       0.00000000
Si      -0.14164155      -0.34125921       2.46963572       0.00000000
Si       1.24017399      -1.89941400      -1.19210055       0.00000000
Si       2.22936795      -0.29188422       2.32468095       0.00000000
Si       2.74141152      -2.09290662       0.75747875       0.00000000
Si      -0.30058308       1.76792112      -3.05704206       0.00000000
Si      -1.35169533      -2.35755396       2.52260796       0.00000000
Si       2.59978626       2.01961791       1.94608015       0.00000000
Si      -3.47464790       1.61534898      -0.45734893       0.00000000
