10
Lattice="16.28999089631971 0.0 0.0 0.0 16.28999089631971 0.0 0.0 0.0 34.64500226677339" Properties=species:S:1:pos:R:3:initial_magmoms:R:1 pbc="T T T"
Si       0.96954822       1.66661361       1.29087351       0.00000000
Si      -1.96724067      -0.46478628       1.16632465       0.00000000
Si       1.61570736      -1.72509471      -0.27660585       0.00000000
Si      -0.97086771       0.84398490      -2.00833726       0.00000000
Si       1.94083947       0.37571256       2.97649239       0.00000000
Si      -2.90599753      -2.25618129      -0.12926058       0.00000000
Si      -3.35524220       1.42485372       0.61086102       0.00000000
Si      -0.18971334      -0.65106243      -3.70334494       0.00000000
Si       3.21722613      -1.04192469      -1.81491410       0.00000000
Si      -1.47667221      -0.69379110       3.47752869       0.00000000
