10
Lattice="16.28999089631971 0.0 0.0 0.0 16.28999089631971 0.0 0.0 0.0 34.64500226677339" Properties=species:S:1:pos:R:3:initial_magmoms:R:1 pbc="T T T"
Si       1.96724067       0.46478628      -1.16632465       0.00000000
Si       0.49056846      -0.22900482       2.31120404       0.00000000
Si      -0.93875686      -1.79139501      -1.29558523       0.00000000
Si      -1.38800152       1.88964000      -0.55546363       0.00000000
Si      -1.36739467       1.44842535      -2.83385883       0.00000000
Si      -2.89937143      -0.87330690       1.71430496       0.00000000
Si       0.99637296       1.30877118      -3.17466191       0.00000000
Si      -3.18384370       1.37692854       0.89730606       0.00000000
Si       2.93678889       2.13139989       0.12454885       0.00000000
Si      -2.49572152      -2.77120593       0.18306429       0.00000000
