10
Lattice="16.28999089631971 0.0 0.0 0.0 16.28999089631971 0.0 0.0 0.0 34.64500226677339" Properties=species:S:1:pos:R:3:initial_magmoms:R:1 pbc="T T T"
Si       0.56689200       2.29705290       0.39575008       0.00000000
Si       1.70587251      -0.92683584      -1.44424702       0.00000000
Si      -2.43100850       0.10155186      -0.46316929       0.00000000
Si       0.59212521      -1.22069115       2.07329667       0.00000000
Si      -1.45645306       3.09207006       1.61923902       0.00000000
Si      -3.41538488      -1.15246863       1.29960405       0.00000000
Si       1.01765259       3.28445496      -1.72036784       0.00000000
Si      -3.07821446       2.38472568      -0.04697865       0.00000000
Si       3.66699303       0.48861855      -1.24909161       0.00000000
Si      -2.69316773      -0.86946246      -2.69787712       0.00000000
