10
Lattice="16.28999089631971 0.0 0.0 0.0 16.28999089631971 0.0 0.0 0.0 34.64500226677339" Properties=species:S:1:pos:R:3:initial_magmoms:R:1 pbc="T T T"
Si      -1.35718017      -1.35574558       1.35766911       0.00000000
Si      -1.35730072       1.35735948      -1.35680298       0.00000000
Si       1.35783666      -1.35812392      -1.35708014       0.00000000
Si       1.36014984       1.35877671       1.35659511       0.00000000
Si      -2.71386608       0.00272254      -2.71485318       0.00000000
Si       0.00146610      -2.71394062      -2.71485318       0.00000000
Si       2.71593396      -0.00199531       2.71339809       0.00000000
Si       0.00066789       2.71164655       2.71772872       0.00000000
Si       2.71495656       2.71451359       0.00024252       0.00000000
Si      -2.71495505       2.71469278      -0.00003465       0.00000000
