10
Lattice="16.28999089631971 0.0 0.0 0.0 16.28999089631971 0.0 0.0 0.0 34.64500226677339" Properties=species:S:1:pos:R:3:initial_magmoms:R:1 pbc="T T T"
Si       1.66915485       0.94591143       1.41786972       0.00000000
Si      -0.99533366      -1.75679505       1.34758190       0.00000000
Si       0.74701053      -1.12572045      -2.11691476       0.00000000
Si      -1.69641454       1.86460227      -0.13078496       0.00000000
Si       0.31428297       2.17450323       2.89614854       0.00000000
Si      -2.38515641      -0.54713223       2.87312000       0.00000000
Si       2.54705553       2.85081516       0.08429134       0.00000000
Si       3.16122111      -1.09913517      -1.85901722       0.00000000
Si      -3.58282979       0.78498252       1.23586557       0.00000000
Si      -0.05866029      -3.54421530      -1.66982075       0.00000000
