10
Lattice="16.28999089631971 0.0 0.0 0.0 16.28999089631971 0.0 0.0 0.0 34.64500226677339" Properties=species:S:1:pos:R:3:initial_magmoms:R:1 pbc="T T T"
Si      -1.87652738      -1.34557029       0.33799683       0.00000000
Si       1.70182265      -1.41762096       0.88708578       0.00000000
Si      -0.59836511       1.30230309       1.98415503       0.00000000
Si       0.28037843       0.35065854      -2.40800223       0.00000000
Si      -3.26930609       0.50176458      -0.39419106       0.00000000
Si      -0.15251335      -0.51974874       3.55056040       0.00000000
Si       2.99371739       0.09063756       2.18180488       0.00000000
Si       0.98816916       3.08992697       1.93904722       0.00000000
Si       0.72168593      -2.54513331       2.72282154       0.00000000
Si      -1.41025871      -3.40713495      -0.93274792       0.00000000
