10
Lattice="10.86 0.0 0.0 0.0 10.86 0.0 0.0 0.0 10.86" Properties=species:S:1:pos:R:3:initial_magmoms:R:1 pbc="T T T"
Si       1.30237464       1.23926718       1.36244130       0.00000000
Si      -1.41262536       1.23926718      -1.35255870       0.00000000
Si       1.30237464      -1.47573282      -1.35255870       0.00000000
Si      -0.92513082      -1.53759138       1.80063144       0.00000000
Si      -2.31367956      -2.74220430       0.47135658       0.00000000
Si       2.51437236      -0.13084128       2.71450044       0.00000000
Si       2.65987464       2.59676718       0.00494130       0.00000000
Si      -2.60372844      -0.15520026       2.68320192       0.00000000
Si      -0.05512536       2.59676718      -2.71005870       0.00000000
Si      -0.05512536       2.59676718       2.71994130       0.00000000
