10
Lattice="10.86 0.0 0.0 0.0 10.86 0.0 0.0 0.0 10.86" Properties=species:S:1:pos:R:3:initial_magmoms:R:1 pbc="T T T"
Si      -1.44560718      -1.35130980      -1.18840980       0.00000000
Si       1.26939282      -1.35130980       1.52659020       0.00000000
Si      -1.44560718       1.36369020       1.52659020       0.00000000
Si       2.58426732       0.13261146      -2.41140870       0.00000000
Si      -0.08810718      -2.70880980      -2.54590980       0.00000000
Si       2.62689282      -2.70880980       0.16909020       0.00000000
Si      -2.80310718       0.00619020      -2.54590980       0.00000000
Si       2.62689282       0.00619020       2.88409020       0.00000000
Si      -2.80310718      -2.70880980       0.16909020       0.00000000
Si      -2.80310718       2.72119020       0.16909020       0.00000000
