10
Lattice="16.290000149 0.0 0.0 0.0 16.290000149 0.0 0.0 0.0 29.1751946751" Properties=species:S:1:pos:R:3:initial_magmoms:R:1 pbc="T T T"
Si       1.32800805      -1.36052452       1.37397662       0.00000000
Si      -1.36963226      -1.36790389      -1.32662528       0.00000000
Si      -1.36653716       1.34864911       1.35116162       0.00000000
Si       1.36808145       1.36471105      -1.34410122       0.00000000
Si      -2.69552424       0.01355328      -2.68694790       0.00000000
Si       0.00957038      -2.71764443      -2.66681702       0.00000000
Si       2.68330349       0.00773775       2.71142589       0.00000000
Si      -0.02406196       2.71039538       2.70456972       0.00000000
Si      -2.70062301       2.72297126      -0.00583504       0.00000000
Si       2.72665118       0.00892692      -2.69841376       0.00000000
