10
Lattice="16.290000149 0.0 0.0 0.0 16.290000149 0.0 0.0 0.0 29.1751946751" Properties=species:S:1:pos:R:3:initial_magmoms:R:1 pbc="T T T"
Si      -1.08154198      -1.16626627       1.70511508       0.00000000
Si       0.87513139      -1.78165361      -1.28312506       0.00000000
Si       1.87312196       1.46209267       0.15839213       0.00000000
Si      -1.59788611       1.30171762      -1.21307542       0.00000000
H        0.47804634       2.30223314       1.78709737       0.00000000
H       -1.23496120      -0.37028799       2.98091717       0.00000000
H        2.59509476       1.54948852       1.47976587       0.00000000
Si       1.99541099      -0.34334433      -2.83428264       0.00000000
Si      -3.29245338      -1.08916570       0.89777909       0.00000000
Si      -0.28406502       2.65904930      -2.59924727       0.00000000
