10
Lattice="16.290000149 0.0 0.0 0.0 16.290000149 0.0 0.0 0.0 29.1751946751" Properties=species:S:1:pos:R:3:initial_magmoms:R:1 pbc="T T T"
Si      -1.29919575      -1.29051336       1.47194109       0.00000000
Si      -1.45023663       1.38463372      -1.22636764       0.00000000
Si       1.36228891       1.39520593       1.31810029       0.00000000
Si       1.43223980      -1.30696463      -1.35220317       0.00000000
Si      -2.62422436      -2.62670844       0.13487984       0.00000000
Si      -0.12875924       2.71033022      -2.59179651       0.00000000
Si       0.08564192      -2.52031568      -2.83414260       0.00000000
Si       2.71114165      -2.68021001       0.03521446       0.00000000
Si       2.65635838       0.04228884       2.74993131       0.00000000
Si       0.01186337       2.72189612       2.72446137       0.00000000
