10
Lattice="16.290000149 0.0 0.0 0.0 16.290000149 0.0 0.0 0.0 29.1751946751" Properties=species:S:1:pos:R:3:initial_magmoms:R:1 pbc="T T T"
Si      -1.25253811       1.10630115      -1.60463571       0.00000000
Si      -1.89561845      -0.01658159       1.33873298       0.00000000
Si       1.57358143       1.68764239       0.44168327       0.00000000
Si       0.43556202      -2.28954486       0.30257594       0.00000000
H        1.83866861       0.58346382      -2.37529847       0.00000000
H       -2.07453152       1.37085075       1.94945733       0.00000000
Si      -1.06191253      -1.26099425       3.05222134       0.00000000
Si       2.04946121      -2.46076905      -1.37520198       0.00000000
Si       0.84333331       2.32083469       2.62170167       0.00000000
Si      -2.58574430       2.65289006      -0.44693481       0.00000000
