10
Lattice="16.290000149 0.0 0.0 0.0 16.290000149 0.0 0.0 0.0 29.1751946751" Properties=species:S:1:pos:R:3:initial_magmoms:R:1 pbc="T T T"
Si      -2.06830874       0.72233444      -0.84716013       0.00000000
Si      -0.78183856      -1.49932836       1.70844105       0.00000000
Si       1.04814748      -0.67313213      -2.06945491       0.00000000
Si       0.92295883       2.08061095       0.81422133       0.00000000
H       -1.38740302       2.28058699       1.73172286       0.00000000
Si      -1.31520574       1.30570867      -3.00309031       0.00000000
Si      -2.66869298       2.24134438       0.91146226       0.00000000
H        0.39092742      -3.58547464      -0.53551070       0.00000000
Si      -2.32319837      -2.81186254       0.51879331       0.00000000
Si      -3.35319227      -1.26564830      -0.96196452       0.00000000
