10
Lattice="16.290000149 0.0 0.0 0.0 16.290000149 0.0 0.0 0.0 29.1751946751" Properties=species:S:1:pos:R:3:initial_magmoms:R:1 pbc="T T T"
H       -0.57979369      -1.42456051       0.02377778       0.00000000
H       -0.78858262      -0.23584662       1.30518151       0.00000000
Si      -1.45637488       1.22360707      -1.35069481       0.00000000
Si       1.42757416      -1.21885039      -1.48212906       0.00000000
Si       1.37608147       1.51785334       1.26699118       0.00000000
H       -2.09523611      -1.84226870       0.83648201       0.00000000
Si      -3.06232455       1.16162362       0.45113604       0.00000000
H       -1.08170488      -2.31581900       2.16937995       0.00000000
Si       2.64344348       0.08687457       2.65155839       0.00000000
Si       2.69666291      -2.61135218      -0.10704379       0.00000000
