10
Lattice="16.290000149 0.0 0.0 0.0 16.290000149 0.0 0.0 0.0 29.1751946751" Properties=species:S:1:pos:R:3:initial_magmoms:R:1 pbc="T T T"
Si      -1.35391078      -1.35594703       1.34795234       0.00000000
Si       1.31999500      -1.36537894      -1.38281670       0.00000000
Si      -1.39603998       1.34879572      -1.32356188       0.00000000
Si       1.36251190       1.36031275       1.36026428       0.00000000
Si      -0.02073717       2.69718419      -2.67303134       0.00000000
Si      -2.66844065       0.04087161       2.70570755       0.00000000
Si       2.68490153      -2.72059292      -0.04688454       0.00000000
Si       2.68079645      -0.01930365      -2.72843503       0.00000000
Si       0.00513135      -2.69474069       2.71924484       0.00000000
Si      -2.71075634      -0.01787013      -2.71673578       0.00000000
