10
Lattice="16.290000149 0.0 0.0 0.0 16.290000149 0.0 0.0 0.0 29.1751946751" Properties=species:S:1:pos:R:3:initial_magmoms:R:1 pbc="T T T"
Si      -1.89079661      -1.33833754      -0.38627958       0.00000000
Si       0.52268094       1.26135263      -1.92734254       0.00000000
H       -0.89787223      -0.98841205       2.06755852       0.00000000
Si       1.93492622      -1.48887343       0.31652169       0.00000000
Si      -1.61653816       1.53024352       1.07650633       0.00000000
H       -2.79919218      -1.41030676       0.83029687       0.00000000
Si       0.19442115       2.85648411       1.68052039       0.00000000
Si      -2.78182704       0.08511525      -1.97600676       0.00000000
Si      -0.01475874      -1.84075373       2.95524299       0.00000000
Si       1.54561150      -0.36054657      -3.24218103       0.00000000
