10
Lattice="16.290000149 0.0 0.0 0.0 16.290000149 0.0 0.0 0.0 29.1751946751" Properties=species:S:1:pos:R:3:initial_magmoms:R:1 pbc="T T T"
Si       1.43975908       1.38717496       1.19743751       0.00000000
Si       1.41261994      -1.33089301      -1.29899637       0.00000000
Si      -1.33333651       1.42187266      -1.29103154       0.00000000
Si      -1.40877550      -1.34573320       1.31098737       0.00000000
Si       0.03503979      -2.67121793      -2.63594966       0.00000000
Si       2.67833666       0.04512330       2.62993957       0.00000000
Si      -2.59542056       0.10225233       2.72481731       0.00000000
Si      -0.03868875      -2.65590533       2.66993877       0.00000000
Si      -2.68628618       0.06569757      -2.64546078       0.00000000
Si       0.03798828       2.78365152      -2.61987413       0.00000000
