10
Lattice="16.290000149 0.0 0.0 0.0 16.290000149 0.0 0.0 0.0 29.1751946751" Properties=species:S:1:pos:R:3:initial_magmoms:R:1 pbc="T T T"
Si       1.44203968      -0.28958733      -0.44098307       0.00000000
Si      -1.98153191       0.08900856       1.06081008       0.00000000
Si      -1.22259709       1.96037120      -0.22336529       0.00000000
Si       0.65498833       2.67056633       1.04864402       0.00000000
Si       1.08349678      -0.04756680      -2.80233580       0.00000000
Si      -0.59028445       1.63905095      -2.55475510       0.00000000
Si      -0.95788459      -1.24752079       2.67869132       0.00000000
Si       1.89035678      -2.42442443       0.44818934       0.00000000
Si       2.66352905       1.29906235       0.97637707       0.00000000
H        1.63504360       2.40942134      -1.42033600       0.00000000
