10
Lattice="16.290000149 0.0 0.0 0.0 16.290000149 0.0 0.0 0.0 29.1751946751" Properties=species:S:1:pos:R:3:initial_magmoms:R:1 pbc="T T T"
Si       1.31673700       1.36899156      -1.34631853       0.00000000
Si      -1.27060372       1.46276855       1.33914144       0.00000000
Si       1.26736201      -1.43097877       1.38456721       0.00000000
Si      -1.37608147      -1.51785334      -1.26699118       0.00000000
H       -2.16466409      -1.75369997       0.03819033       0.00000000
Si      -2.56782530       0.05004288       2.64228068       0.00000000
H       -1.95587516      -2.94241386      -1.24321340       0.00000000
Si       2.55602483       2.74706092       0.08971372       0.00000000
Si      -0.12284289       2.69398810      -2.61859042       0.00000000
Si       2.60360955      -2.72818406      -0.04472557       0.00000000
