10
Lattice="16.290000149 0.0 0.0 0.0 16.290000149 0.0 0.0 0.0 29.1751946751" Properties=species:S:1:pos:R:3:initial_magmoms:R:1 pbc="T T T"
Si      -0.47747619       2.03009240      -1.05856359       0.00000000
Si       1.59431860       0.81334342       1.56093127       0.00000000
Si       1.29707497      -1.50097690      -1.32099446       0.00000000
Si      -1.87018976      -0.89671564       1.27696910       0.00000000
H       -2.79124266      -0.73409257      -1.26465716       0.00000000
H        1.03881331       1.18568395      -2.76580846       0.00000000
H       -1.07823511       1.93842857      -2.45847695       0.00000000
Si      -2.19377432       2.47213784       0.46592786       0.00000000
Si       2.22441581      -2.54477495       0.51287075       0.00000000
Si       3.29564622      -0.78460786       1.57618989       0.00000000
