10
Lattice="16.290000149 0.0 0.0 0.0 16.290000149 0.0 0.0 0.0 29.1751946751" Properties=species:S:1:pos:R:3:initial_magmoms:R:1 pbc="T T T"
Si      -1.34791606      -1.36171369      -1.35078234       0.00000000
Si       1.34337115      -1.38272779       1.34345936       0.00000000
Si      -1.38958588       1.34993602       1.33313135       0.00000000
Si       1.34913781       1.34796493      -1.37706919       0.00000000
Si       2.71182890      -0.02505402       2.67230196       0.00000000
Si      -0.03705975       2.73611729       2.65459261       0.00000000
Si      -2.69090603      -0.00461007      -2.71521867       0.00000000
Si       2.71523351       2.70286940      -0.02923355       0.00000000
Si       0.01065366      -2.71749782      -2.70509488       0.00000000
Si      -0.03269403      -2.71868699       2.70474477       0.00000000
