10
Lattice="16.290000149 0.0 0.0 0.0 16.290000149 0.0 0.0 0.0 29.1751946751" Properties=species:S:1:pos:R:3:initial_magmoms:R:1 pbc="T T T"
Si      -1.41289687      -1.29629305      -1.34363792       0.00000000
Si      -1.38192958       1.35643573       1.32458010       0.00000000
Si       1.32129820       1.40320432      -1.34306083       0.00000000
Si       1.37152027      -1.41204979       1.30393865       0.00000000
Si       2.62531271       2.58742217       0.21037941       0.00000000
Si       2.66284487       0.04782744      -2.68731843       0.00000000
Si      -0.10578726      -2.72135855      -2.64586048       0.00000000
Si      -2.69195510       0.19919412      -2.68148339       0.00000000
Si      -2.73517248      -0.04137660       2.64482768       0.00000000
Si      -0.04489524       2.68125257       2.72943574       0.00000000
