10
Lattice="16.290000149 0.0 0.0 0.0 16.290000149 0.0 0.0 0.0 29.1751946751" Properties=species:S:1:pos:R:3:initial_magmoms:R:1 pbc="T T T"
H        0.91318483      -0.89440246       0.80558548       0.00000000
Si       1.34560288       1.30849426      -1.39291132       0.00000000
Si      -1.13249710       1.43358517       1.46590766       0.00000000
Si      -1.31588992      -1.46948833      -1.27717332       0.00000000
H       -1.10017774      -1.23704632       2.21781077       0.00000000
Si      -2.55977641       2.64624536       0.07906478       0.00000000
Si      -0.48796695      -2.54259535       2.65975662       0.00000000
Si      -2.64969233      -0.12267999      -2.65578880       0.00000000
Si       0.00397476       2.67838553      -2.69715922       0.00000000
Si       2.72888454       2.65473245      -0.09423588       0.00000000
