10
Lattice="16.290000149 0.0 0.0 0.0 16.290000149 0.0 0.0 0.0 29.1751946751" Properties=species:S:1:pos:R:3:initial_magmoms:R:1 pbc="T T T"
H        0.71814466       0.74277514       1.08336250       0.00000000
Si      -1.85161916      -0.82363870       1.11805181       0.00000000
Si      -1.23857758       1.34205166      -1.43250206       0.00000000
Si       1.46494342      -1.38562741      -1.16654098       0.00000000
H        2.23358708       1.16048332       0.27065828       0.00000000
H        1.73167589       0.26922483       2.41626045       0.00000000
H        2.02479815       2.34919721       1.55206201       0.00000000
Si      -2.36639945       2.76267000       0.02984622       0.00000000
Si      -1.18983790      -1.19101078       3.26686325       0.00000000
Si       0.10063962      -2.70182684      -2.55169170       0.00000000
