10
Lattice="16.290000149 0.0 0.0 0.0 16.290000149 0.0 0.0 0.0 29.1751946751" Properties=species:S:1:pos:R:3:initial_magmoms:R:1 pbc="T T T"
H       -0.65440189       0.41796882      -0.03897806       0.00000000
Si       1.97822504       0.62103997       1.08455869       0.00000000
H       -1.80035453      -1.20404278       1.08700940       0.00000000
Si       0.74534896      -0.55866556      -2.48843988       0.00000000
Si       0.19824930       2.17017011       1.71570567       0.00000000
Si      -2.52232733      -1.29143863      -0.23436434       0.00000000
Si      -0.91469980      -2.08257878      -1.75722198       0.00000000
Si       2.61053768       0.29971971      -1.24683112       0.00000000
Si       1.21929022      -1.25032267       2.36873406       0.00000000
Si      -0.74183032       1.24792804      -2.60400283       0.00000000
