10
Lattice="16.290000149 0.0 0.0 0.0 16.290000149 0.0 0.0 0.0 29.1751946751" Properties=species:S:1:pos:R:3:initial_magmoms:R:1 pbc="T T T"
Si      -1.40351709       1.32501232       1.30841996       0.00000000
Si       1.36806353      -1.23904999       1.44644780       0.00000000
Si       1.33204634       1.39774717      -1.34068772       0.00000000
Si      -1.39377567      -1.37422441      -1.31008294       0.00000000
Si       2.56730077      -2.63845874      -0.02987540       0.00000000
Si      -0.12048899       2.72603379       2.63772935       0.00000000
Si       2.62908874       0.04033404      -2.75962331       0.00000000
Si      -2.67260584       2.71751411      -0.06666532       0.00000000
Si       0.00354959      -2.67059891       2.74634860       0.00000000
Si      -2.73028873      -0.01744659      -2.69783025       0.00000000
