10
Lattice="16.290000149 0.0 0.0 0.0 16.290000149 0.0 0.0 0.0 29.1751946751" Properties=species:S:1:pos:R:3:initial_magmoms:R:1 pbc="T T T"
Si       0.08327448      -0.69191776      -2.22990681       0.00000000
Si      -0.98872156      -1.78731112       1.15258357       0.00000000
Si       1.83907586       0.88150078       1.18612629       0.00000000
Si      -1.63308880       1.73537372      -0.08395862       0.00000000
H        2.53421903      -0.94670965      -0.73514489       0.00000000
Si      -2.30399246      -0.46408581       2.55347431       0.00000000
Si       0.55167715       2.33031710       2.51459544       0.00000000
Si      -2.12089286      -0.31084578      -3.03385847       0.00000000
Si      -2.07159932       1.98338897      -2.36743868       0.00000000
Si       2.02300625       0.33532965      -3.13153703       0.00000000
