10
Lattice="16.290000149 0.0 0.0 0.0 16.290000149 0.0 0.0 0.0 29.1751946751" Properties=species:S:1:pos:R:3:initial_magmoms:R:1 pbc="T T T"
Si      -1.31527090       1.32322531       1.40089074       0.00000000
Si       0.98872156       1.78731112      -1.15258357       0.00000000
Si       1.38287440      -1.32424425       1.36595052       0.00000000
Si      -1.29793834      -1.28374405      -1.50611691       0.00000000
Si      -2.51830370       2.72019056      -0.04065855       0.00000000
Si       1.07199604       1.09539337      -3.38249038       0.00000000
Si      -2.63303417      -2.64853737      -0.09754143       0.00000000
Si      -0.64436725       3.52268484      -1.23654220       0.00000000
Si       0.11313405       2.72717897       2.64379196       0.00000000
Si       0.03300354      -2.71941516       2.67643900       0.00000000
