10
Lattice="16.290000149 0.0 0.0 0.0 16.290000149 0.0 0.0 0.0 29.1751946751" Properties=species:S:1:pos:R:3:initial_magmoms:R:1 pbc="T T T"
Si      -1.30895038      -1.28953270       1.47056694       0.00000000
Si      -1.34843734       1.36241416      -1.37679202       0.00000000
Si       1.43154892      -1.37163430      -1.28472386       0.00000000
Si       1.37192752       1.40618539       1.31240820       0.00000000
Si      -2.62097957      -2.64960110       0.12512657       0.00000000
Si       2.64857483       0.06287940      -2.72745183       0.00000000
Si       2.74636371      -2.63537993       0.18814791       0.00000000
Si      -2.71195922       2.71005329       0.01405661       0.00000000
Si       2.71117730       0.06942798       2.73420297       0.00000000
Si      -2.73743678      -0.01638774      -2.71843669       0.00000000
