10
Lattice="16.290000149 0.0 0.0 0.0 16.290000149 0.0 0.0 0.0 29.1751946751" Properties=species:S:1:pos:R:3:initial_magmoms:R:1 pbc="T T T"
Si      -1.34123716      -1.34890975       1.37161343       0.00000000
Si       1.32190093      -1.37371942      -1.37310136       0.00000000
Si      -1.36161595       1.32717889      -1.38827246       0.00000000
Si       1.34346889       1.32890563       1.40711964       0.00000000
Si       2.69874803       2.67431303       0.01210771       0.00000000
Si       2.62679510      -2.75442726       0.00274247       0.00000000
Si      -2.72039744       2.69803127      -0.06091781       0.00000000
Si      -2.73461861       0.00392589       2.68528492       0.00000000
Si       2.67613751      -0.02502144      -2.74754478       0.00000000
Si      -0.00900837       2.69425199      -2.74077614       0.00000000
