10
Lattice="16.290000149 0.0 0.0 0.0 16.290000149 0.0 0.0 0.0 29.1751946751" Properties=species:S:1:pos:R:3:initial_magmoms:R:1 pbc="T T T"
Si       0.78858262       0.23584662      -1.30518151       0.00000000
H        0.20878893      -1.18871389      -1.28140373       0.00000000
H       -1.30665349      -1.60642207      -0.46869950       0.00000000
H       -0.29312226      -2.07997238       0.86419844       0.00000000
Si      -1.99712144       0.51999309       1.39544956       0.00000000
Si       2.16466409       1.75369997      -0.03819033       0.00000000
Si      -2.27374193       1.39747024      -0.85404547       0.00000000
Si      -0.66779227       1.45945369      -2.65587632       0.00000000
Si      -0.40316121       1.80374285       2.60409035       0.00000000
Si       0.86395645      -2.63208935       1.67649421       0.00000000
