10
Lattice="16.290000149 0.0 0.0 0.0 16.290000149 0.0 0.0 0.0 29.1751946751" Properties=species:S:1:pos:R:3:initial_magmoms:R:1 pbc="T T T"
Si       1.43957989      -1.32499654       1.27227189       0.00000000
Si      -1.39341403      -1.41501132      -1.26208975       0.00000000
Si      -1.23297382       1.43407713       1.41114582       0.00000000
Si       1.38121282       1.33882950      -1.38331268       0.00000000
Si       0.12284289      -2.69398810       2.61859042       0.00000000
Si      -2.58681944       2.74434700      -0.01444172       0.00000000
Si      -2.66302406      -0.02550037      -2.69100326       0.00000000
Si       0.03148857      -2.69071381      -2.68473059       0.00000000
Si       2.67886772       0.05307282       2.70830415       0.00000000
Si       2.76057510       2.70226993      -0.05236947       0.00000000
