10
Lattice="16.290000149 0.0 0.0 0.0 16.290000149 0.0 0.0 0.0 29.1751946751" Properties=species:S:1:pos:R:3:initial_magmoms:R:1 pbc="T T T"
Si      -1.46494342       1.38562741       1.16654098       0.00000000
Si      -1.36430380      -1.31619943      -1.38515072       0.00000000
Si       1.31269708      -1.33509583       1.44020431       0.00000000
Si       1.35702217       1.37898109      -1.37006714       0.00000000
H        0.76864366       2.54611073       1.43719926       0.00000000
H       -0.74679877       2.12840255       2.24990349       0.00000000
Si      -2.71412579      -2.65769723      -0.02319428       0.00000000
Si       2.69956253      -2.68532507       0.08288673       0.00000000
Si      -0.00552231      -2.68705181      -2.71250537       0.00000000
Si       2.71832861       0.01686015      -2.69987252       0.00000000
