10
Lattice="16.290000149 0.0 0.0 0.0 16.290000149 0.0 0.0 0.0 29.1751946751" Properties=species:S:1:pos:R:3:initial_magmoms:R:1 pbc="T T T"
H        0.64560529      -0.84393604       1.07688561       0.00000000
Si      -1.43288470       1.22196178       1.28840577       0.00000000
Si      -1.44190936      -1.32616891      -1.21187924       0.00000000
Si       1.50157963       1.36184401      -1.16091017       0.00000000
Si       0.05245380       2.23625864       2.75822290       0.00000000
Si       0.08029341      -2.64151475      -2.40946263       0.00000000
Si       1.06329718      -3.49152207      -0.41863487       0.00000000
Si      -2.67864617       0.06517629      -2.58419287       0.00000000
Si       0.16597881       2.71445159      -2.54515646       0.00000000
Si       2.79513597      -0.59078944       2.39114061       0.00000000
