10
Lattice="16.290000149 0.0 0.0 0.0 16.290000149 0.0 0.0 0.0 29.1751946751" Properties=species:S:1:pos:R:3:initial_magmoms:R:1 pbc="T T T"
Si      -1.40272605       1.16985007      -1.46112292       0.00000000
Si      -1.45918719      -1.17874441       1.41690792       0.00000000
Si       1.46052004      -1.28026369      -1.34532658       0.00000000
Si       1.22016434       1.48998115       1.39843418       0.00000000
H       -2.30489884       1.91158265      -0.48389978       0.00000000
Si       2.65296271       0.41300037      -2.53433246       0.00000000
Si      -0.07121402      -2.53887797       2.77353113       0.00000000
Si      -2.85463747      -2.49997745       0.05131917       0.00000000
Si       2.60572171       0.15009606       2.77038896       0.00000000
Si      -0.25014338       2.81002503      -2.64061769       0.00000000
