10
Lattice="16.290000149 0.0 0.0 0.0 16.290000149 0.0 0.0 0.0 29.1751946751" Properties=species:S:1:pos:R:3:initial_magmoms:R:1 pbc="T T T"
Si      -1.38771253      -1.27449703      -1.37799696       0.00000000
Si       1.20303280      -1.39696525       1.44154929       0.00000000
Si      -1.41903820       1.38207619       1.28399740       0.00000000
Si       1.87393646       0.80249428      -1.19588364       0.00000000
Si       2.51830370      -2.72019056       0.04065855       0.00000000
Si       2.63143775       0.00698841       2.68445051       0.00000000
Si       2.68390784       2.66188376      -0.01495229       0.00000000
Si       3.50702526      -0.93287944      -1.11192502       0.00000000
Si      -0.09861966       2.72292239       2.67846959       0.00000000
Si      -2.72336874      -2.68100985      -0.02471431       0.00000000
