10
Lattice="16.290000149 0.0 0.0 0.0 16.290000149 0.0 0.0 0.0 29.1751946751" Properties=species:S:1:pos:R:3:initial_magmoms:R:1 pbc="T T T"
Si       0.52569622      -0.67520422       2.23050198       0.00000000
Si      -2.00854073       1.37150398       0.07226696       0.00000000
Si       1.16742612       2.05425047      -0.58458338       0.00000000
Si      -1.22148937      -1.58864968      -1.41736013       0.00000000
Si       2.19522413      -1.41995044      -1.04318826       0.00000000
H       -1.02848545       1.11035899      -2.39671307       0.00000000
H       -2.66352905      -1.29906235      -0.97637707       0.00000000
H       -1.56408436       2.65367360      -0.60045468       0.00000000
Si       0.00643455       2.21700386      -2.60184386       0.00000000
H        3.39192012      -1.05404446      -0.15296555       0.00000000
