10
Lattice="16.290000149 0.0 0.0 0.0 16.290000149 0.0 0.0 0.0 29.1751946751" Properties=species:S:1:pos:R:3:initial_magmoms:R:1 pbc="T T T"
Si      -1.23186610       1.20098547       1.59607279       0.00000000
Si      -1.94207753      -0.85208104      -1.06192019       0.00000000
Si       1.30074022      -1.53002197       1.31810904       0.00000000
Si       1.47800018       1.30737823      -1.37294965       0.00000000
H       -0.86403790      -2.56678274      -1.85142284       0.00000000
Si      -2.64868886       2.54415919       0.34152775       0.00000000
Si       2.64926227      -0.28427679      -2.65916728       0.00000000
Si       2.82459806       2.52072928       0.10898977       0.00000000
Si      -3.68817006       0.69030505      -0.61060181       0.00000000
Si       2.69132794      -0.24304680       2.75271463       0.00000000
