10
Lattice="16.290000149 0.0 0.0 0.0 16.290000149 0.0 0.0 0.0 29.1751946751" Properties=species:S:1:pos:R:3:initial_magmoms:R:1 pbc="T T T"
H       -1.44203968       0.28958733       0.44098307       0.00000000
Si       0.44831709      -2.13483710       0.88917241       0.00000000
Si      -0.35854290       0.24202053      -2.36135273       0.00000000
Si       1.22148937       1.58864968       1.41736013       0.00000000
H        0.19300392       2.69900867      -0.97935293       0.00000000
H        1.53109549      -1.40372560      -2.09772567       0.00000000
H        0.37843299      -3.21051468      -0.17195860       0.00000000
Si      -0.78705136       2.96015367       1.48962709       0.00000000
Si       3.41671350       0.16869924       0.37417187       0.00000000
Si      -2.66463677       2.24995853       0.21761778       0.00000000
