10
Lattice="16.290000149 0.0 0.0 0.0 16.290000149 0.0 0.0 0.0 29.1751946751" Properties=species:S:1:pos:R:3:initial_magmoms:R:1 pbc="T T T"
H        1.35633799       0.57785518       0.27375085       0.00000000
Si      -0.46947780       0.42187842      -2.21171316       0.00000000
Si      -1.35778780       1.35146728       1.32805486       0.00000000
Si      -0.44813790      -2.20920095       0.61302919       0.00000000
H        2.27809136      -1.19431765      -0.17140427       0.00000000
H        2.95772646      -0.26753067       1.44478482       0.00000000
Si       0.62591068      -2.12141414       2.71311805       0.00000000
Si       1.35979147       1.71747101      -2.84574849       0.00000000
Si      -2.75494528      -2.03515859       1.21829778       0.00000000
Si      -2.53360001      -0.17669763       2.64776562       0.00000000
