10
Lattice="16.290000149 0.0 0.0 0.0 16.290000149 0.0 0.0 0.0 29.1751946751" Properties=species:S:1:pos:R:3:initial_magmoms:R:1 pbc="T T T"
Si      -1.46111527      -1.29715642       1.30115533       0.00000000
Si       1.36513459      -1.39044925      -1.31227108       0.00000000
Si      -1.36576990       1.32328558      -1.38057021       0.00000000
Si       1.38350971       1.35211888       1.34019174       0.00000000
Si      -0.08433333       2.69441489       2.56992620       0.00000000
Si      -0.22437846      -2.68850162       2.67346896       0.00000000
Si       2.71915940      -0.04108338      -2.68356358       0.00000000
Si      -0.01060479       2.67910229      -2.73596223       0.00000000
Si       0.00469152      -2.73597069      -2.67944988       0.00000000
Si       2.73333170       2.69361668      -0.02176470       0.00000000
