10
Lattice="16.290000149 0.0 0.0 0.0 16.290000149 0.0 0.0 0.0 29.1751946751" Properties=species:S:1:pos:R:3:initial_magmoms:R:1 pbc="T T T"
Si      -1.37132479      -1.36177885       1.32884259       0.00000000
Si      -1.36563958       1.34547256      -1.35250367       0.00000000
Si       1.35773893      -1.36718713      -1.34798152       0.00000000
Si       1.37295379       1.36844146       1.33424000       0.00000000
Si       2.77511556      -0.07395660       2.52855577       0.00000000
Si       0.01402569       2.70034445      -2.68260080       0.00000000
Si      -2.68441283       2.71383257       0.03223859       0.00000000
Si      -2.67450851       0.00954594       2.72677204       0.00000000
Si      -0.03798828      -2.78365152       2.61987413       0.00000000
Si       2.73290817      -0.02463048      -2.69033223       0.00000000
