10
Lattice="16.290000149 0.0 0.0 0.0 16.290000149 0.0 0.0 0.0 29.1751946751" Properties=species:S:1:pos:R:3:initial_magmoms:R:1 pbc="T T T"
Si      -1.31673700      -1.36899156       1.34631853       0.00000000
Si      -1.43957989       1.32499654      -1.27227189       0.00000000
Si       1.23928783       1.37806936       1.43603226       0.00000000
Si       1.42124061      -1.34843358      -1.30275997       0.00000000
Si       2.63591750      -0.05298761       2.59475429       0.00000000
Si      -2.58734072       0.09377699       2.68545997       0.00000000
Si      -0.05836707       2.66382604      -2.65558457       0.00000000
Si       2.65479761       2.68045813       0.05397411       0.00000000
Si      -2.83299393      -0.09001478      -2.53436164       0.00000000
Si       0.06583587      -2.68984993      -2.69036140       0.00000000
