10
Lattice="16.28999089631971 0.0 0.0 0.0 16.28999089631971 0.0 0.0 0.0 34.474598006748145" Properties=species:S:1:pos:R:3:initial_magmoms:R:1 pbc="T T T"
Si      -1.99163169      -0.17610142       1.28197312       0.00000000
Si       1.64529000       1.46465508       0.91650770       0.00000000
Si      -0.14714757       1.19422479      -2.06713253       0.00000000
Si       0.44955513      -2.35138235      -0.25997309       0.00000000
Si      -1.00106937      -0.86468623       3.30097908       0.00000000
Si       2.17010493       0.78254391      -2.78968603       0.00000000
Si       3.30665823       1.56379602      -0.66966944       0.00000000
Si      -1.96675686       0.04307890      -3.28829242       0.00000000
Si       1.22805423      -1.74811478       3.23216774       0.00000000
Si       0.43228773      -3.43771358       1.84180643       0.00000000
