10
Lattice="16.28999089631971 0.0 0.0 0.0 16.28999089631971 0.0 0.0 0.0 34.474598006748145" Properties=species:S:1:pos:R:3:initial_magmoms:R:1 pbc="T T T"
Si      -1.45562553       1.22925969       1.39988320       0.00000000
Si       1.27519749      -1.48157550       1.39234016       0.00000000
Si       1.13596686       1.52572140      -1.54474696       0.00000000
Si      -0.99867474      -1.84919193      -1.26444071       0.00000000
Si       1.88543718      -0.06398712      -3.13051041       0.00000000
Si      -2.29829094      -0.62064900      -2.83754511       0.00000000
Si       2.67030567       2.61397485      -0.05955835       0.00000000
Si      -2.77480602       2.52811026      -0.10385134       0.00000000
Si      -0.09716985       2.58641217       2.76587096       0.00000000
Si       2.61819396      -0.13199787       2.76693968       0.00000000
