10
Lattice="16.28999089631971 0.0 0.0 0.0 16.28999089631971 0.0 0.0 0.0 34.474598006748145" Properties=species:S:1:pos:R:3:initial_magmoms:R:1 pbc="T T T"
Si      -1.35777150      -1.35690813      -1.35685199       0.00000000
Si       1.35783666       1.35767376      -1.35709331       0.00000000
Si      -1.35998694       1.35755973       1.35750700       0.00000000
Si       1.36081773      -1.35837423       1.35936863       0.00000000
Si      -2.71238274       2.71515204       0.00017237       0.00000000
Si      -2.71450044      -0.00006516      -2.71435899       0.00000000
Si       0.00071676       2.71469592      -2.71422109       0.00000000
Si       0.00043983      -2.71493864      -2.71466926       0.00000000
Si       2.71528236       2.71441899      -0.00075844       0.00000000
Si       2.71562445       0.00039096      -2.71411767       0.00000000
