10
Lattice="16.28999089631971 0.0 0.0 0.0 16.28999089631971 0.0 0.0 0.0 34.474598006748145" Properties=species:S:1:pos:R:3:initial_magmoms:R:1 pbc="T T T"
Si       2.08362132       1.03035879      -0.70190321       0.00000000
Si      -0.74399688      -2.26124748       0.66818703       0.00000000
Si      -0.60703056       1.61121132       1.84749474       0.00000000
Si      -0.28843074      -0.13861161      -2.68246997       0.00000000
Si       1.57325562      -2.67292836      -0.05436647       0.00000000
Si      -0.19940589       3.64446396       0.62009494       0.00000000
Si       3.54107133       0.21564702       1.16375966       0.00000000
Si      -2.09996019       1.62157176      -2.73731909       0.00000000
Si       1.67902659       3.32215002      -0.94284631       0.00000000
Si       2.70980892      -1.89167625       2.06565012       0.00000000
