10
Lattice="16.28999089631971 0.0 0.0 0.0 16.28999089631971 0.0 0.0 0.0 34.474598006748145" Properties=species:S:1:pos:R:3:initial_magmoms:R:1 pbc="T T T"
Si      -1.88029443       1.13397459      -0.89602978       0.00000000
Si       0.24392646      -1.28245861       2.03383005       0.00000000
Si       1.97058501       0.35259542      -1.41825128       0.00000000
Si       0.62156124       3.08131377       1.37484774       0.00000000
Si       1.94571018       0.13341510       3.15201426       0.00000000
Si       2.59602327      -1.93125673      -1.90610159       0.00000000
Si       1.04962986      -3.38276089       1.32044679       0.00000000
Si      -1.57764903       3.39611802       0.53163307       0.00000000
Si      -3.67467281       0.61546389       0.75947582       0.00000000
Si      -2.49627050      -0.36844233      -2.96505841       0.00000000
