10
Lattice="16.28999089631971 0.0 0.0 0.0 16.28999089631971 0.0 0.0 0.0 34.474598006748145" Properties=species:S:1:pos:R:3:initial_magmoms:R:1 pbc="T T T"
Si      -1.35715248       1.35668007       1.35978233       0.00000000
Si       1.35783666      -1.35930276       1.35936863       0.00000000
Si      -1.35845568      -1.35715248      -1.36598776       0.00000000
Si       1.36384767       1.35241209      -1.37703688       0.00000000
Si       0.09716985      -2.58641217      -2.76587096       0.00000000
Si       2.71321353       2.71718829      -0.00013790       0.00000000
Si       0.00042354       2.71394658       2.71663432       0.00000000
Si      -2.71394658       2.71715571      -0.00158583       0.00000000
Si      -2.71477737      -0.00061902       2.71677221       0.00000000
Si       2.71500543      -0.00074934       2.71694459       0.00000000
