10
Lattice="16.28999089631971 0.0 0.0 0.0 16.28999089631971 0.0 0.0 0.0 34.474598006748145" Properties=species:S:1:pos:R:3:initial_magmoms:R:1 pbc="T T T"
Si       0.37234053       2.03098833       1.10453226       0.00000000
Si      -1.80905337      -0.10414197      -1.56773322       0.00000000
Si       1.48116825       0.36536841      -1.90106829       0.00000000
Si      -0.81013428      -1.92950163       1.35068103       0.00000000
Si       2.44622043      -0.38237517       0.93271077       0.00000000
Si       1.88599104      -1.88170677      -2.56177433       0.00000000
Si       2.09810313       3.06634815      -0.13500260       0.00000000
Si      -3.72666330      -0.21494655      -0.20440001       0.00000000
Si      -1.32473538      -2.10944097      -2.79592594       0.00000000
Si       0.44010693       2.11945932      -3.17918026       0.00000000
