10
Lattice="16.28999089631971 0.0 0.0 0.0 16.28999089631971 0.0 0.0 0.0 34.474598006748145" Properties=species:S:1:pos:R:3:initial_magmoms:R:1 pbc="T T T"
Si       0.70348365       0.00503361       2.26667161       0.00000000
Si       0.51065892      -2.05617267      -1.08677783       0.00000000
Si      -2.40310080       0.21279627       0.18961040       0.00000000
Si       0.81013428       1.92950163      -1.35068103       0.00000000
Si      -0.99891909       1.82535966      -2.91841425       0.00000000
Si       3.25635471       1.54712646      -0.41797026       0.00000000
Si      -2.91652902       1.71455508      -1.55508104       0.00000000
Si      -0.92222577      -2.21319198      -2.91920717       0.00000000
Si       2.54510073      -1.71183465      -2.26012143       0.00000000
Si       0.57433653       2.23806681       3.04438450       0.00000000
