10
Lattice="16.28999089631971 0.0 0.0 0.0 16.28999089631971 0.0 0.0 0.0 34.474598006748145" Properties=species:S:1:pos:R:3:initial_magmoms:R:1 pbc="T T T"
Si       2.15182918       0.75214188      -0.53614925       0.00000000
Si      -1.15343530       2.06277012       0.04898843       0.00000000
Si       0.09444942      -0.61077726       2.29773324       0.00000000
Si      -1.62395566      -1.33627359      -1.11821869       0.00000000
Si      -3.35260159      -0.64526319       0.42200379       0.00000000
Si      -1.02565654       1.27521378       3.16297719       0.00000000
Si       3.24889552      -1.28250681      -0.94463899       0.00000000
Si      -2.92656922       1.49216400       1.72204161       0.00000000
Si       1.92474658       1.66539186      -2.72180551       0.00000000
Si       1.54711180      -2.69838053      -2.06282320       0.00000000
