10
Lattice="16.28999089631971 0.0 0.0 0.0 16.28999089631971 0.0 0.0 0.0 34.474598006748145" Properties=species:S:1:pos:R:3:initial_magmoms:R:1 pbc="T T T"
Si       1.40183595      -1.37694483       1.29028150       0.00000000
Si       1.35446463       1.34679204      -1.37291716       0.00000000
Si      -1.35975888      -1.37026593      -1.37701964       0.00000000
Si      -1.33568226       1.46994723       1.44238351       0.00000000
Si      -0.10744884      -2.55233349       2.58804399       0.00000000
Si       2.71243161       2.70722437       0.00675702       0.00000000
Si      -2.70282377      -2.71971324      -0.02275325       0.00000000
Si      -2.72274807       2.70585601      -0.00641228       0.00000000
Si       0.00019548       2.70264525      -2.73442322       0.00000000
Si      -2.71419093      -0.01353699      -2.73373373       0.00000000
