10
Lattice="16.28999089631971 0.0 0.0 0.0 16.28999089631971 0.0 0.0 0.0 34.474598006748145" Properties=species:S:1:pos:R:3:initial_magmoms:R:1 pbc="T T T"
Si      -1.24071156      -1.18089468      -1.56652661       0.00000000
Si       1.30388418       1.52482545      -1.31000098       0.00000000
Si       1.73978829      -1.70181630       0.52225598       0.00000000
Si      -2.02991319       0.80638758       1.57555896       0.00000000
Si      -2.74999635      -2.35628334      -0.26876412       0.00000000
Si       1.47369114      -1.91399355       2.85322275       0.00000000
Si       0.09096336      -2.54920581      -2.86322039       0.00000000
Si      -0.85916718      -2.42199720       2.87321803       0.00000000
Si       2.55873546       2.87069289       0.35177899       0.00000000
Si      -2.64254751       0.19605015      -2.85680811       0.00000000
