10
Lattice="16.28999089631971 0.0 0.0 0.0 16.28999089631971 0.0 0.0 0.0 34.474598006748145" Properties=species:S:1:pos:R:3:initial_magmoms:R:1 pbc="T T T"
Si       0.08369802      -1.71559764       1.59145176       0.00000000
Si      -0.80042544       2.11611987       0.67018656       0.00000000
Si       2.33285832       0.50800365      -0.01999528       0.00000000
Si      -0.86154552      -1.52607978      -1.64774881       0.00000000
Si       2.59895547       0.72018090      -2.35096205       0.00000000
Si      -1.89082917       0.06571386      -3.14198214       0.00000000
Si      -1.17074601       3.22838478      -1.29765907       0.00000000
Si      -2.71713942       1.77688062       1.92888931       0.00000000
Si       0.56801601      -3.72089664       0.36325904       0.00000000
Si       3.37391964      -1.24608726       1.25811668       0.00000000
