10
Lattice="16.28999089631971 0.0 0.0 0.0 16.28999089631971 0.0 0.0 0.0 34.474598006748145" Properties=species:S:1:pos:R:3:initial_magmoms:R:1 pbc="T T T"
Si      -1.12010596       1.88599104       0.86524394       0.00000000
Si      -0.09444942       0.61077726      -2.29773324       0.00000000
Si      -1.22330311      -1.95012819       0.64371005       0.00000000
Si       2.06283691      -0.18549423       1.20468103       0.00000000
Si       1.30865878       0.74603313       3.22296302       0.00000000
Si       0.29805650      -3.57053084      -0.27090154       0.00000000
Si      -1.24788472       2.67354738      -2.24874481       0.00000000
Si      -3.02101864       2.10294126      -0.57569163       0.00000000
Si      -0.90717937       1.65060054       3.22441095       0.00000000
Si       2.05737976       1.36291914      -2.83388249       0.00000000
