10
Lattice="16.28999089631971 0.0 0.0 0.0 16.28999089631971 0.0 0.0 0.0 34.474598006748145" Properties=species:S:1:pos:R:3:initial_magmoms:R:1 pbc="T T T"
Si      -1.66136823      -0.09914094       1.58617714       0.00000000
Si       0.83126241       2.10732327      -0.90189046       0.00000000
Si       0.32267232      -2.24881006      -0.92698798       0.00000000
Si      -1.13655330      -0.78125211      -2.12001659       0.00000000
Si       0.63557064      -0.46892394       2.52654128       0.00000000
Si       2.77671195      -0.73215405       1.57214597       0.00000000
Si       2.29483746      -2.67963821       0.35360615       0.00000000
Si      -3.30665823      -1.56379602       0.66966944       0.00000000
Si      -3.45380580      -0.36957123      -1.39746309       0.00000000
Si      -2.70980892       1.89167625      -2.06565012       0.00000000
