10
Lattice="16.28999089631971 0.0 0.0 0.0 16.28999089631971 0.0 0.0 0.0 34.474598006748145" Properties=species:S:1:pos:R:3:initial_magmoms:R:1 pbc="T T T"
Si      -1.45922562       1.46755795      -1.19302861       0.00000000
Si       1.97216514      -0.43082815       1.28059413       0.00000000
Si      -0.32267232       2.24881006       0.92698798       0.00000000
Si      -1.05202449      -2.17450227       0.46923402       0.00000000
Si       1.41972237      -0.99994440      -2.44218189       0.00000000
Si      -0.38200050       0.50854611      -3.40326527       0.00000000
Si       3.63651444      -0.70186410      -0.37749706       0.00000000
Si       2.45403963       1.51665601       2.49913396       0.00000000
Si      -3.17977542      -1.66636830       1.33668434       0.00000000
Si      -1.98404055       2.14966912       2.51316512       0.00000000
