10
Lattice="16.28999089631971 0.0 0.0 0.0 16.28999089631971 0.0 0.0 0.0 34.474598006748145" Properties=species:S:1:pos:R:3:initial_magmoms:R:1 pbc="T T T"
Si      -1.05521733       1.85388671       1.00028102       0.00000000
Si       2.20349943       0.66499852       0.55211100       0.00000000
Si      -0.93823884      -1.77558135       1.31861964       0.00000000
Si      -0.49687758       0.10186137      -2.37554245       0.00000000
Si      -2.75926536      -1.97244600      -0.19422999       0.00000000
Si       0.00597843       3.58175072      -0.14269044       0.00000000
Si      -2.81821887      -0.63058983      -2.13325484       0.00000000
Si       2.28235932      -0.36902796       2.74941968       0.00000000
Si       0.76535307      -3.50494404      -0.93812329       0.00000000
Si       3.60945675      -0.20309720      -1.10480806       0.00000000
