10
Lattice="16.28999089631971 0.0 0.0 0.0 16.28999089631971 0.0 0.0 0.0 34.474598006748145" Properties=species:S:1:pos:R:3:initial_magmoms:R:1 pbc="T T T"
Si      -1.35777150       1.35451350      -1.35847229       0.00000000
Si       1.35747828       1.35656604       1.35702436       0.00000000
Si       1.35870003      -1.35431802      -1.35819650       0.00000000
Si      -1.35746199      -1.35767376       1.35761043       0.00000000
Si       2.68853418       0.00620649      -2.72370161       0.00000000
Si      -2.71322982      -2.71469592       0.00079292       0.00000000
Si      -0.00030951       2.71410948       2.71480716       0.00000000
Si      -2.71529865       2.71362078      -0.00017237       0.00000000
Si       2.71474479      -0.00006516       2.71504848       0.00000000
Si      -2.71524978      -0.00039096       2.71463479       0.00000000
