10
Lattice="16.28999089631971 0.0 0.0 0.0 16.28999089631971 0.0 0.0 0.0 34.474598006748145" Properties=species:S:1:pos:R:3:initial_magmoms:R:1 pbc="T T T"
Si      -1.35666378      -1.32613632       1.36412613       0.00000000
Si      -1.35306369       1.35855342      -1.35881704       0.00000000
Si       1.36057338      -1.35695700      -1.35950653       0.00000000
Si       1.34947989       1.38461742       1.37991551       0.00000000
Si       0.03823263      -2.61477306       2.73969783       0.00000000
Si      -2.71021617       2.71415835      -0.00020685       0.00000000
Si      -2.71189404       0.00130320      -2.71563455       0.00000000
Si       2.71358820       2.71463076       0.00486092       0.00000000
Si      -2.71469592      -2.71381626      -0.00124109       0.00000000
Si       0.00312768      -2.71370223      -2.71584140       0.00000000
