10
Lattice="16.28999089631971 0.0 0.0 0.0 16.28999089631971 0.0 0.0 0.0 34.474598006748145" Properties=species:S:1:pos:R:3:initial_magmoms:R:1 pbc="T T T"
Si      -0.40459473       2.29179123      -0.24094310       0.00000000
Si      -2.08362132      -1.03035879       0.70190321       0.00000000
Si       1.28029626       0.49951656      -2.03327845       0.00000000
Si       1.45745001      -0.81471177       1.86566286       0.00000000
Si      -2.37205206      -1.16897040      -1.98056676       0.00000000
Si       0.92769921       2.84183937       1.55614975       0.00000000
Si       0.77667462       1.08220986       3.20848368       0.00000000
Si      -0.52616700      -0.46275003      -3.40667826       0.00000000
Si       2.94829452      -1.29468033      -1.84814976       0.00000000
Si      -2.28302721       2.61410517       1.32199815       0.00000000
