10
Lattice="16.28999089631971 0.0 0.0 0.0 16.28999089631971 0.0 0.0 0.0 34.474598006748145" Properties=species:S:1:pos:R:3:initial_magmoms:R:1 pbc="T T T"
Si      -1.38691431      -0.99346194      -1.58776297       0.00000000
Si       1.75431897       0.60815457      -1.43228245       0.00000000
Si       0.17150112      -1.39888746       1.90644634       0.00000000
Si      -0.67566033       2.26549917       0.25438820       0.00000000
Si      -1.23588972       0.76616757      -3.24009690       0.00000000
Si       2.06356833       2.89264788      -0.90709613       0.00000000
Si      -3.42135612      -1.33779996      -0.41441937       0.00000000
Si       0.18876852       2.86563906       2.37857622       0.00000000
Si      -1.20567177      -0.36474939       3.56601994       0.00000000
Si       2.34991395       2.78357004       1.44124585       0.00000000
