10
Lattice="16.28999089631971 0.0 0.0 0.0 16.28999089631971 0.0 0.0 0.0 34.474598006748145" Properties=species:S:1:pos:R:3:initial_magmoms:R:1 pbc="T T T"
Si       1.00983339      -1.83159873      -0.97725198       0.00000000
Si       0.70794711       0.20906586       2.20054930       0.00000000
Si      -2.34069381      -0.21250305      -0.20022858       0.00000000
Si       0.59596965       1.90092897      -1.27494030       0.00000000
Si       0.70978788      -1.17719685      -3.17218191       0.00000000
Si       0.26723745       2.49885342       2.38605721       0.00000000
Si      -2.86596486       2.06681004      -0.21288076       0.00000000
Si      -0.05136237      -3.55946274       0.16571949       0.00000000
Si       1.97314254       0.86679090      -2.93451390       0.00000000
Si       3.07011114       0.11626173       2.03882887       0.00000000
