10
Lattice="16.28999089631971 0.0 0.0 0.0 16.28999089631971 0.0 0.0 0.0 34.474598006748145" Properties=species:S:1:pos:R:3:initial_magmoms:R:1 pbc="T T T"
Si       1.35658233       1.35654975      -1.35747253       0.00000000
Si      -1.35710361       1.35711990       1.35809307       0.00000000
Si       1.35782037      -1.35806472       1.35740358       0.00000000
Si      -1.35716877      -1.35855342      -1.35757595       0.00000000
Si      -2.71331127      -0.00030951       2.71425557       0.00000000
Si      -2.71458189       2.71469592      -0.00031027       0.00000000
Si       0.00032580      -2.71581993       2.71356607       0.00000000
Si      -2.71423980      -2.71554300       0.00010342       0.00000000
Si       2.71560816       2.71479366      -0.00017237       0.00000000
Si       0.00193851       2.71629234       2.71439347       0.00000000
