10
Lattice="16.28999089631971 0.0 0.0 0.0 16.28999089631971 0.0 0.0 0.0 34.474598006748145" Properties=species:S:1:pos:R:3:initial_magmoms:R:1 pbc="T T T"
Si      -1.35620766      -1.35742941       1.35616249       0.00000000
Si       1.35710361      -1.35711990      -1.35809307       0.00000000
Si      -1.35747828       1.35757602      -1.35840334       0.00000000
Si       1.35904212       1.35917244       1.35630039       0.00000000
Si       0.00273672       2.71062342       2.71711696       0.00000000
Si      -2.71336014      -0.00182448       2.71477269       0.00000000
Si      -0.00017919       2.71410948      -2.71494506       0.00000000
Si       2.71368594      -0.00057015      -2.71556560       0.00000000
Si      -2.71477737       2.71485882      -0.00079292       0.00000000
Si      -2.71503801      -2.71467963      -0.00065502       0.00000000
