10
Lattice="16.28999089631971 0.0 0.0 0.0 16.28999089631971 0.0 0.0 0.0 34.474598006748145" Properties=species:S:1:pos:R:3:initial_magmoms:R:1 pbc="T T T"
Si       0.98777673       1.80297720      -1.09250062       0.00000000
Si       0.57163239      -0.07511319       2.30286996       0.00000000
Si       1.43428563      -1.73687238      -0.85379837       0.00000000
Si      -2.41857630       0.08289981       0.49505550       0.00000000
Si       3.18298455      -0.73689444       0.31003023       0.00000000
Si       0.57686148       0.65567250      -3.18666125       0.00000000
Si       3.20732181       1.61609832      -0.21601795       0.00000000
Si       0.88088175       2.20938012       2.82805628       0.00000000
Si      -2.56960089      -1.67672970       2.14738944       0.00000000
Si       2.57227245      -1.27804824       2.52133561       0.00000000
