10
Lattice="16.28999089631971 0.0 0.0 0.0 16.28999089631971 0.0 0.0 0.0 34.474598006748145" Properties=species:S:1:pos:R:3:initial_magmoms:R:1 pbc="T T T"
Si      -1.35588186      -1.35614250       1.35719673       0.00000000
Si      -1.35760860       1.35741312      -1.35736911       0.00000000
Si       1.35778779      -1.35764118      -1.35736911       0.00000000
Si       1.35790182       1.35697329       1.35943758       0.00000000
Si       2.71489140      -0.00073305      -2.71418662       0.00000000
Si      -2.71510317      -0.00120546      -2.71404872       0.00000000
Si      -2.71422351       2.71545990      -0.00041370       0.00000000
Si      -2.71218726      -0.00469152       2.71801330       0.00000000
Si      -2.71492398      -2.71531494       0.00089634       0.00000000
Si       2.71546155       2.71483347       0.00017237       0.00000000
