10
Lattice="16.28999089631971 0.0 0.0 0.0 16.28999089631971 0.0 0.0 0.0 34.474598006748145" Properties=species:S:1:pos:R:3:initial_magmoms:R:1 pbc="T T T"
Si      -1.35630540       1.35145098       1.36081657       0.00000000
Si       1.35588186       1.35614250      -1.35719673       0.00000000
Si      -1.35904212      -1.35917244      -1.35630039       0.00000000
Si       1.35140211      -1.36052451       1.36354006       0.00000000
Si      -2.69869914      -0.01938510       2.72735592       0.00000000
Si       2.71378368       2.71311579       0.00224085       0.00000000
Si      -0.00172674       2.71355562      -2.71456584       0.00000000
Si       2.71366965      -0.00149868      -2.71456584       0.00000000
Si      -0.01270620      -2.69053785       2.73859465       0.00000000
Si      -0.00193851      -2.71629234      -2.71439347       0.00000000
