10
Lattice="16.28999089631971 0.0 0.0 0.0 16.28999089631971 0.0 0.0 0.0 34.474598006748145" Properties=species:S:1:pos:R:3:initial_magmoms:R:1 pbc="T T T"
Si       1.35630540      -1.35145098      -1.36081657       0.00000000
Si      -1.34239374      -1.37083608       1.36653935       0.00000000
Si      -1.35977517       1.36371735      -1.35919626       0.00000000
Si       1.35834165       1.37368683       1.38377666       0.00000000
Si      -2.67406866      -0.00252495       2.66323313       0.00000000
Si       2.70770751      -2.71197549       0.00272349       0.00000000
Si      -0.00273672      -2.71062342      -2.71711696       0.00000000
Si      -2.71609686      -2.71244790      -0.00234427       0.00000000
Si       2.71218726       0.00469152      -2.71801330       0.00000000
Si       2.70409113       2.72707632      -0.00351641       0.00000000
