10
Lattice="16.28999089631971 0.0 0.0 0.0 16.28999089631971 0.0 0.0 0.0 34.474598006748145" Properties=species:S:1:pos:R:3:initial_magmoms:R:1 pbc="T T T"
Si      -1.35657409       1.35602460      -1.35578327       0.00000000
Si      -1.35567814      -1.35814583       1.35726568       0.00000000
Si       1.35917809       1.35719422       1.35754148       0.00000000
Si       1.36045360      -1.35667973      -1.36202318       0.00000000
Si      -2.69878864       0.00332350      -2.71238015       0.00000000
Si      -2.71346593       2.71432878       0.00082739       0.00000000
Si      -2.71310755      -0.00031823       2.71491058       0.00000000
Si       0.00175298       2.71432878       2.71511743       0.00000000
Si      -2.71367770      -2.71588475       0.00055159       0.00000000
Si       0.00142192      -2.71590104       2.71442794       0.00000000
