10
Lattice="16.28999089631971 0.0 0.0 0.0 16.28999089631971 0.0 0.0 0.0 34.474598006748145" Properties=species:S:1:pos:R:3:initial_magmoms:R:1 pbc="T T T"
Si      -0.37678770      -0.16861779      -2.31014410       0.00000000
Si      -0.98492598      -1.89104094       0.98038917       0.00000000
Si       2.34031914       0.25853859       0.33192162       0.00000000
Si      -1.18429929       1.79103663       1.07581491       0.00000000
Si       2.56152105      -1.98184140      -0.35777758       0.00000000
Si       0.63672723       1.98790128       2.58866454       0.00000000
Si      -2.03901930       1.44329400      -2.25357126       0.00000000
Si       2.20700178       0.21629862       2.65688980       0.00000000
Si      -1.24325280       3.13289280      -0.86320994       0.00000000
Si      -3.24892647      -1.19363346       0.76802552       0.00000000
