10
Lattice="16.28999089631971 0.0 0.0 0.0 16.28999089631971 0.0 0.0 0.0 34.474598006748145" Properties=species:S:1:pos:R:3:initial_magmoms:R:1 pbc="T T T"
Si      -1.34221455      -1.35270109      -1.35659687       0.00000000
Si       1.35657409      -1.35602460       1.35578327       0.00000000
Si      -1.35689184       1.35830418       1.35661066       0.00000000
Si       1.36026496       1.35331944      -1.37804698       0.00000000
Si       0.09322767      -2.65953376      -2.66318487       0.00000000
Si      -2.65970088      -0.02220001      -2.75795904       0.00000000
Si       0.00089595      -2.71417042       2.71304896       0.00000000
Si      -2.71450044       0.00141397       2.71325580       0.00000000
Si       2.71575218       0.00116962       2.71332475       0.00000000
Si       0.00068418       2.71646664       2.71325580       0.00000000
