10
Lattice="16.28999089631971 0.0 0.0 0.0 16.28999089631971 0.0 0.0 0.0 34.474598006748145" Properties=species:S:1:pos:R:3:initial_magmoms:R:1 pbc="T T T"
Si      -1.35736425       1.35093144      -1.35867914       0.00000000
Si       1.34912381       1.35576469       1.36867678       0.00000000
Si       1.35768095      -1.36362831      -1.35864467       0.00000000
Si      -1.36365219      -1.37027463       1.37753676       0.00000000
Si       0.14949742      -2.62038552       2.75745226       0.00000000
Si      -2.71130760       2.71039385       0.00699835       0.00000000
Si       2.71437731       2.71042643       0.00068949       0.00000000
Si       0.00029494       2.70966080      -2.71549665       0.00000000
Si       2.71460537      -0.00443362      -2.71549665       0.00000000
Si      -2.71456560      -0.00498621      -2.71570350       0.00000000
