10
Lattice="16.28999089631971 0.0 0.0 0.0 16.28999089631971 0.0 0.0 0.0 34.474598006748145" Properties=species:S:1:pos:R:3:initial_magmoms:R:1 pbc="T T T"
Si      -1.34659656      -1.36080700      -1.39639437       0.00000000
Si       1.38021912       1.34702173      -1.38801704       0.00000000
Si       0.94377744      -1.76010748       1.30913912       0.00000000
Si      -1.54627938       1.42822738       1.75106924       0.00000000
Si      -2.70285309       2.69278750      -0.01010106       0.00000000
Si      -2.69234604      -2.71419649      -0.00910130       0.00000000
Si       2.72476314       2.69988994       0.01299693       0.00000000
Si      -2.69459406      -0.01114399      -2.75565958       0.00000000
Si       0.01772352       2.70319681      -2.75310846       0.00000000
Si       2.72787453      -2.73364675      -0.01747863       0.00000000
