10
Lattice="16.28999089631971 0.0 0.0 0.0 16.28999089631971 0.0 0.0 0.0 34.474598006748145" Properties=species:S:1:pos:R:3:initial_magmoms:R:1 pbc="T T T"
Si      -0.05637969       2.30906677      -0.15892799       0.00000000
Si      -2.09034909      -0.49502622      -0.97835516       0.00000000
Si       0.99593802      -0.01577198       2.16373040       0.00000000
Si       1.39015602      -1.12586610      -1.62258234       0.00000000
Si      -1.94833287      -2.80231887      -1.10277406       0.00000000
Si       0.31579794      -3.26485713      -1.63688930       0.00000000
Si      -0.45144477       3.20104202       1.93385366       0.00000000
Si       1.81775223       3.13775536      -1.34444112       0.00000000
Si      -2.08647207       3.08743555      -1.08570912       0.00000000
Si      -2.16920898       0.53900026      -3.17566384       0.00000000
