10
Lattice="16.28999089631971 0.0 0.0 0.0 16.28999089631971 0.0 0.0 0.0 34.474598006748145" Properties=species:S:1:pos:R:3:initial_magmoms:R:1 pbc="T T T"
Si       1.35809634      -1.35668007      -1.36467772       0.00000000
Si      -1.35848826       1.36054080      -1.36491905       0.00000000
Si       1.35146305       1.35661491       1.37705411       0.00000000
Si      -1.36720341      -1.36063854       1.40228953       0.00000000
Si      -2.71174743      -2.71350675       0.00127556       0.00000000
Si       2.71393748      -2.71347417      -0.00503329       0.00000000
Si       2.71499633       2.71577106      -0.00082739       0.00000000
Si      -2.71572219       2.71637379      -0.00872208       0.00000000
Si      -0.00014489      -2.71423980      -2.72121944       0.00000000
Si       2.71491488       0.00096111      -2.72152971       0.00000000
