10
Lattice="16.28999089631971 0.0 0.0 0.0 16.28999089631971 0.0 0.0 0.0 34.474598006748145" Properties=species:S:1:pos:R:3:initial_magmoms:R:1 pbc="T T T"
Si       1.09286352       2.09114730      -0.50308809       0.00000000
Si      -2.23024761       0.25436835       1.15527890       0.00000000
Si       0.93734289      -1.21836168       2.08109475       0.00000000
Si      -0.73940310      -0.22560021      -2.55853372       0.00000000
Si      -0.34142211       3.82801968       0.35071028       0.00000000
Si      -3.68769762       1.06908012      -0.71038396       0.00000000
Si       2.60706789       0.19303650       2.90679630       0.00000000
Si      -2.40740136       1.56859668      -2.74366242       0.00000000
Si      -3.06151002      -1.85295492       2.05716936       0.00000000
Si       1.77964992       2.55251268      -2.73125155       0.00000000
