10
Lattice="16.28999089631971 0.0 0.0 0.0 16.28999089631971 0.0 0.0 0.0 34.474598006748145" Properties=species:S:1:pos:R:3:initial_magmoms:R:1 pbc="T T T"
Si       1.04910858      -2.01277611      -0.70552304       0.00000000
Si      -1.78849539      -0.02360421      -1.61044727       0.00000000
Si       1.66092840       1.74218292      -0.29841229       0.00000000
Si      -0.12644298      -0.28264779       2.41174080       0.00000000
Si       0.20569383       3.30335136       1.00669330       0.00000000
Si      -1.09499751       1.96022457      -2.86866738       0.00000000
Si       1.18763874       2.47559130      -2.50620125       0.00000000
Si      -2.78493840       2.45083050       0.36653413       0.00000000
Si       1.77572403      -1.92546171       2.70396252       0.00000000
Si      -0.23666112      -3.95276850      -0.41690155       0.00000000
