10
Lattice="16.28999089631971 0.0 0.0 0.0 16.28999089631971 0.0 0.0 0.0 34.474598006748145" Properties=species:S:1:pos:R:3:initial_magmoms:R:1 pbc="T T T"
Si      -1.35568638      -1.35536058       1.38552797       0.00000000
Si       1.36223496       1.35643572       1.38773435       0.00000000
Si      -1.27775502       1.49973885      -1.44957147       0.00000000
Si       1.23328332      -1.56709800      -1.42515655       0.00000000
Si       2.56244958      -0.15745914      -2.73534166       0.00000000
Si       2.71863810       2.68970706       0.02922758       0.00000000
Si      -2.70014895      -2.72370429      -0.00581587       0.00000000
Si       2.73052980      -2.71298547       0.01063542       0.00000000
Si      -2.72139111       2.72316672       0.00401974       0.00000000
Si       0.00322542      -2.71274112       2.74617217       0.00000000
