10
Lattice="16.28999089631971 0.0 0.0 0.0 16.28999089631971 0.0 0.0 0.0 34.474598006748145" Properties=species:S:1:pos:R:3:initial_magmoms:R:1 pbc="T T T"
Si       1.11589758       1.58706954      -1.25222152       0.00000000
Si      -1.71199755      -1.14161949      -1.26521845       0.00000000
Si       0.41091525       1.14730470       2.09416063       0.00000000
Si       1.54421055      -1.93117950       0.10469941       0.00000000
Si      -0.57686148      -0.65567250       3.18666125       0.00000000
Si       0.85742415      -2.39254488       2.33286288       0.00000000
Si       2.29838868       0.10492389      -2.66726666       0.00000000
Si      -0.42547851      -2.60260443      -2.66726666       0.00000000
Si       3.00780189       2.38736466       0.05340118       0.00000000
Si      -0.39754116       2.82455568      -2.64341023       0.00000000
