10
Lattice="16.28999089631971 0.0 0.0 0.0 16.28999089631971 0.0 0.0 0.0 34.474598006748145" Properties=species:S:1:pos:R:3:initial_magmoms:R:1 pbc="T T T"
Si      -2.16114543       0.08206902       0.93733037       0.00000000
Si      -0.28634562       0.10907784      -2.34834198       0.00000000
Si       1.02239298       2.08529919       0.58203496       0.00000000
Si       1.00774827      -1.98959544       0.97239105       0.00000000
Si      -3.02557428      -0.51807087      -1.18685765       0.00000000
Si       2.63199159      -0.74999160       2.27511789       0.00000000
Si       2.53575027      -2.47979412      -0.80632682       0.00000000
Si      -0.59559498      -2.17541547      -2.87352830       0.00000000
Si       2.03910075       1.52489061       2.68215970       0.00000000
Si      -2.38234734       2.32244901       1.62702956       0.00000000
