10
Lattice="16.28999089631971 0.0 0.0 0.0 16.28999089631971 0.0 0.0 0.0 34.474598006748145" Properties=species:S:1:pos:R:3:initial_magmoms:R:1 pbc="T T T"
Si       1.52800200      -0.49019868      -1.77871788       0.00000000
Si       1.62424332       1.23960384       1.30272684       0.00000000
Si      -1.00774827       1.98959544      -0.97239105       0.00000000
Si      -0.95961132      -2.41693101       0.36877498       0.00000000
Si      -1.19418732       0.20527029       2.49086005       0.00000000
Si      -0.79535925      -2.07029610       2.69722511       0.00000000
Si      -3.16889370       2.07166446      -0.03506069       0.00000000
Si       2.96873262      -2.18202921      -0.98787016       0.00000000
Si      -3.18616110      -2.19286206      -0.50719057       0.00000000
Si       0.39729681      -1.38875508      -3.62745370       0.00000000
