10
Lattice="16.28999089631971 0.0 0.0 0.0 16.28999089631971 0.0 0.0 0.0 34.474598006748145" Properties=species:S:1:pos:R:3:initial_magmoms:R:1 pbc="T T T"
Si      -1.31748633       1.33050108      -1.40136216       0.00000000
Si       1.34221455       1.35270109       1.35659687       0.00000000
Si       1.43544222      -1.30683267      -1.30658799       0.00000000
Si      -1.37306781      -1.36389654       1.35301151       0.00000000
Si      -0.45657612      -1.96336854      -2.78602624       0.00000000
Si      -2.31373386      -0.21991500      -2.92058068       0.00000000
Si       2.70247951       2.70602054      -0.02145011       0.00000000
Si       2.69878864      -0.00332350       2.71238015       0.00000000
Si      -0.01467729       2.71100528       2.71320754       0.00000000
Si      -0.01488906      -2.71920825       2.71293174       0.00000000
