10
Lattice="16.28999089631971 0.0 0.0 0.0 16.28999089631971 0.0 0.0 0.0 34.474598006748145" Properties=species:S:1:pos:R:3:initial_magmoms:R:1 pbc="T T T"
Si       1.35119034      -1.35122292      -1.35519720       0.00000000
Si      -1.34887716      -1.33810947       1.38229425       0.00000000
Si      -1.36290285       1.36301688      -1.35154290       0.00000000
Si       1.34557029       1.35558864       1.38243215       0.00000000
Si      -2.21591241       0.47605896       2.66799063       0.00000000
Si      -0.43852680       2.32912791       2.70904990       0.00000000
Si       0.16456158      -2.57559561       2.77348296       0.00000000
Si       2.70735167      -2.70844056       0.00406800       0.00000000
Si       2.70918635       0.00529425      -2.71129075       0.00000000
Si      -0.00447975      -2.70917361      -2.71156655       0.00000000
