10
Lattice="16.28999089631971 0.0 0.0 0.0 16.28999089631971 0.0 0.0 0.0 34.474598006748145" Properties=species:S:1:pos:R:3:initial_magmoms:R:1 pbc="T T T"
Si       2.07582560      -0.50191119      -1.10563545       0.00000000
Si      -0.67134348      -2.26170360       0.47461206       0.00000000
Si       0.65034129       1.68142122       1.67239816       0.00000000
Si      -1.68692724       0.58098285      -1.71673252       0.00000000
Si       0.53305767       0.09365121       3.39440529       0.00000000
Si       1.86602017      -2.86699113      -1.47199721       0.00000000
Si       3.70440206       0.38468835       0.36811996       0.00000000
Si      -0.46380888      -3.35215620      -1.67443216       0.00000000
Si      -2.43203184       2.69008761      -1.05644017       0.00000000
Si       1.86736084      -1.77047865       2.97715900       0.00000000
