10
Lattice="16.28999089631971 0.0 0.0 0.0 16.28999089631971 0.0 0.0 0.0 34.474598006748145" Properties=species:S:1:pos:R:3:initial_magmoms:R:1 pbc="T T T"
Si       2.13623802      -0.58705902       0.70810864       0.00000000
Si      -0.52137774       1.89009612      -1.27635376       0.00000000
Si      -0.75621438       0.80024625       2.16645390       0.00000000
Si      -0.84655872      -1.70698023      -1.65347159       0.00000000
Si      -2.87739718       1.60792074      -0.55914382       0.00000000
Si       1.36238157      -2.71044423       1.53201752       0.00000000
Si      -3.04964764       0.96264126       1.76906499       0.00000000
Si      -0.00936675       1.25600787      -3.47979892       0.00000000
Si       3.73598118      -0.25384707      -0.99641986       0.00000000
Si       0.06092460       3.10997277       2.49251483       0.00000000
