10
Lattice="16.28999089631971 0.0 0.0 0.0 16.28999089631971 0.0 0.0 0.0 34.474598006748145" Properties=species:S:1:pos:R:3:initial_magmoms:R:1 pbc="T T T"
Si       1.33430317      -1.86412986      -0.41724629       0.00000000
Si       1.21103511       0.90841185       1.77675283       0.00000000
Si       0.11728362       1.58777001      -1.72200713       0.00000000
Si      -2.01456801      -0.87630426       0.90561372       0.00000000
Si      -0.53305767      -0.09365121      -3.39440529       0.00000000
Si      -0.99786024      -1.43671284       3.00573846       0.00000000
Si       1.38669181      -1.09939581       3.04697010       0.00000000
Si      -0.31032450       2.52881450       2.69136442       0.00000000
Si       1.67615045      -2.94063822       1.60817195       0.00000000
Si       3.44778569      -1.20262554      -1.18116934       0.00000000
