10
Lattice="16.28999089631971 0.0 0.0 0.0 16.28999089631971 0.0 0.0 0.0 34.474598006748145" Properties=species:S:1:pos:R:3:initial_magmoms:R:1 pbc="T T T"
Si       0.87928533      -1.41322266      -1.64230182       0.00000000
Si       0.45537066       2.29692258       0.30261819       0.00000000
Si       0.13035258      -1.01667519       2.14887184       0.00000000
Si      -2.35218152      -0.31122045      -0.40945503       0.00000000
Si      -0.52318593      -3.31682319      -1.40456486       0.00000000
Si       0.31587939      -0.19271070      -3.64148487       0.00000000
Si       2.85070113       2.43186894       0.64322741       0.00000000
Si      -0.12013875       3.41879859      -1.70570064       0.00000000
Si       1.87442514       0.23192073       3.34569266       0.00000000
Si      -0.54289683       3.03209028       2.40832781       0.00000000
