10
Lattice="16.28999089631971 0.0 0.0 0.0 16.28999089631971 0.0 0.0 0.0 34.474598006748145" Properties=species:S:1:pos:R:3:initial_magmoms:R:1 pbc="T T T"
Si      -2.29343326       0.16239501      -0.39738891       0.00000000
Si       0.56340594      -1.22051196       1.99918306       0.00000000
Si       0.75621438      -0.80024625      -2.16645390       0.00000000
Si       0.81713898       2.30972652       0.32606093       0.00000000
Si       2.89245240      -1.38730527      -1.45834526       0.00000000
Si      -2.12118280       0.80767449      -2.72559772       0.00000000
Si       0.23483664       1.08984987      -3.44280765       0.00000000
Si      -0.31587939       0.19271070       3.64148487       0.00000000
Si       3.70007802      -0.28245231       0.48936719       0.00000000
Si       3.17480697       1.99686078       0.47671501       0.00000000
