10
Lattice="16.28999089631971 0.0 0.0 0.0 16.28999089631971 0.0 0.0 0.0 34.474598006748145" Properties=species:S:1:pos:R:3:initial_magmoms:R:1 pbc="T T T"
Si       1.35707103       1.35703845       1.35733463       0.00000000
Si       1.35479043      -1.35837423      -1.35950653       0.00000000
Si      -1.35798653      -1.35808101       1.35705883       0.00000000
Si      -1.36065646       1.35896067      -1.35916179       0.00000000
Si       0.00016290       2.71427238       2.71473821       0.00000000
Si       2.71469592       2.71433754       0.00034475       0.00000000
Si      -2.71486236       2.71463076       0.00072397       0.00000000
Si       2.71471221      -0.00065160       2.71494506       0.00000000
Si       2.71396287      -2.71580364      -0.00044817       0.00000000
Si      -0.00794952      -2.69404020      -2.73563672       0.00000000
