10
Lattice="16.28999089631971 0.0 0.0 0.0 16.28999089631971 0.0 0.0 0.0 34.474598006748145" Properties=species:S:1:pos:R:3:initial_magmoms:R:1 pbc="T T T"
Si      -1.34345259       1.40411655       1.33047890       0.00000000
Si       1.34816040       1.35773892      -1.38274242       0.00000000
Si      -1.36808307      -1.35562122      -1.37764018       0.00000000
Si       1.49498217      -1.22419350       1.49947348       0.00000000
Si       2.70171279      -2.68255575      -0.01840945       0.00000000
Si       2.72186352       2.69935074      -0.01385880       0.00000000
Si      -2.71447112       2.72489346      -0.03019976       0.00000000
Si      -2.73161634      -2.71477737       0.00024132       0.00000000
Si       2.70531288       0.00213399      -2.74135262       0.00000000
Si      -0.00871515      -2.71264338      -2.74111129       0.00000000
