10
Lattice="16.28999089631971 0.0 0.0 0.0 16.28999089631971 0.0 0.0 0.0 34.474598006748145" Properties=species:S:1:pos:R:3:initial_magmoms:R:1 pbc="T T T"
Si       1.35936792      -1.35702216      -1.36347111       0.00000000
Si      -1.35670613       1.36086660      -1.36267820       0.00000000
Si      -1.36353327      -1.35915615       1.37788150       0.00000000
Si       1.36808307       1.35562122       1.37764018       0.00000000
Si       2.71176372      -2.71461447      -0.00613648       0.00000000
Si       2.71624347       2.71336014      -0.00510224       0.00000000
Si      -2.71499633      -2.71577106       0.00082739       0.00000000
Si      -2.71730696       2.71601541      -0.00572279       0.00000000
Si       2.71456560       0.00050499      -2.72052995       0.00000000
Si      -0.00008145      -2.71480995      -2.72070232       0.00000000
