10
Lattice="16.28999089631971 0.0 0.0 0.0 16.28999089631971 0.0 0.0 0.0 34.474598006748145" Properties=species:S:1:pos:R:3:initial_magmoms:R:1 pbc="T T T"
Si       1.22435640       1.48815666       1.25011857       0.00000000
Si      -1.75272744      -0.92385477       1.17958350       0.00000000
Si      -1.37101853       1.32077691      -1.36067867       0.00000000
Si       1.34345259      -1.40411655      -1.33047890       0.00000000
Si      -0.47066697      -1.50110721       3.01190941       0.00000000
Si       2.25364005      -0.10363698       2.74435191       0.00000000
Si      -3.39282323       0.88941771       1.36119579       0.00000000
Si      -2.59056922       2.77019595       0.04443778       0.00000000
Si      -0.02795364       2.67022422      -2.71494506       0.00000000
Si       2.73364119       2.66354532      -0.04764392       0.00000000
