10
Lattice="16.28999089631971 0.0 0.0 0.0 16.28999089631971 0.0 0.0 0.0 34.474598006748145" Properties=species:S:1:pos:R:3:initial_magmoms:R:1 pbc="T T T"
Si       1.35688532      -1.35695985       1.35757595       0.00000000
Si       1.35859577       1.35592910      -1.35743806       0.00000000
Si      -1.35742511       1.35713456       1.35757595       0.00000000
Si      -1.35917809      -1.35719422      -1.35754148       0.00000000
Si       2.71434731       0.00002769       2.71373845       0.00000000
Si       2.71641614      -0.00155244      -2.71173892       0.00000000
Si       0.00081613       2.71469429       2.71411767       0.00000000
Si      -2.71575218      -0.00116962      -2.71332475       0.00000000
Si      -2.71508429      -0.00159479       2.71439347       0.00000000
Si       2.71496633       2.71490606      -0.00003447       0.00000000
