10
Lattice="16.28999089631971 0.0 0.0 0.0 16.28999089631971 0.0 0.0 0.0 34.474598006748145" Properties=species:S:1:pos:R:3:initial_magmoms:R:1 pbc="T T T"
Si      -0.99446540      -1.70245161      -1.20264702       0.00000000
Si       0.34184728      -1.07650836       2.02541824       0.00000000
Si      -1.33430317       1.86412986       0.41724629       0.00000000
Si       2.11348252       0.66150432      -0.76392304       0.00000000
Si       2.72026873      -1.44811584      -1.58314337       0.00000000
Si       0.78952906      -2.23402689      -2.61052144       0.00000000
Si      -0.12326806       2.77254171       2.19399912       0.00000000
Si       0.05238864       0.76473405       3.46421639       0.00000000
Si      -2.53870432      -0.49122495      -2.50254694       0.00000000
Si      -3.34887118       0.98782560       1.32286001       0.00000000
