10
Lattice="16.28999089631971 0.0 0.0 0.0 16.28999089631971 0.0 0.0 0.0 34.474598006748145" Properties=species:S:1:pos:R:3:initial_magmoms:R:1 pbc="T T T"
Si       2.21307795       0.73533060      -0.31761465       0.00000000
Si      -0.79146594       1.24090704       1.85311410       0.00000000
Si      -1.32131611       0.77403564      -1.86566286       0.00000000
Si      -0.08332335      -2.45596185       0.05684864       0.00000000
Si      -0.84659130       3.39139881       0.70417853       0.00000000
Si       2.57342904      -0.21789504      -2.52592073       0.00000000
Si      -1.03185747      -1.06720677      -3.30446101       0.00000000
Si      -3.09474881       0.50837832       1.84242697       0.00000000
Si      -2.41802081      -2.75577930      -0.27328029       0.00000000
Si       1.12611141      -2.02847967      -3.14018946       0.00000000
