10
Lattice="16.28999089631971 0.0 0.0 0.0 16.28999089631971 0.0 0.0 0.0 34.474598006748145" Properties=species:S:1:pos:R:3:initial_magmoms:R:1 pbc="T T T"
Si      -1.22435640      -1.48815666      -1.25011857       0.00000000
Si       1.50928479       1.17538866      -1.29776249       0.00000000
Si       1.02928365      -1.59179364       1.49423334       0.00000000
Si      -1.26351756       1.59228234       1.53756793       0.00000000
Si       2.74999635       2.35628334       0.26876412       0.00000000
Si       0.10744884       2.55233349      -2.58804399       0.00000000
Si       1.89082917      -0.06571386       3.14198214       0.00000000
Si      -2.59537493      -0.16737975      -2.61079724       0.00000000
Si       0.72008316       3.16267092       1.84432307       0.00000000
Si      -2.97708384      -2.41201143      -0.07053507       0.00000000
