10
Lattice="16.28999089631971 0.0 0.0 0.0 16.28999089631971 0.0 0.0 0.0 34.474598006748145" Properties=species:S:1:pos:R:3:initial_magmoms:R:1 pbc="T T T"
Si      -0.11728362      -1.58777001       1.72200713       0.00000000
Si      -0.92271009       2.16567635       0.35370957       0.00000000
Si      -0.65034129      -1.68142122      -1.67239816       0.00000000
Si       2.24835737       0.80356941      -0.59089494       0.00000000
Si       3.05406077      -1.29673287      -1.30427820       0.00000000
Si      -1.67024190       2.70149192      -1.86524917       0.00000000
Si       1.09375149      -0.67935816       3.49875996       0.00000000
Si       1.42548431      -2.18333241      -2.77803361       0.00000000
Si       0.70124557       3.50194994       1.47192826       0.00000000
Si       1.21701955      -3.45189987       1.30476084       0.00000000
