10
Lattice="16.28999089631971 0.0 0.0 0.0 16.28999089631971 0.0 0.0 0.0 34.474598006748145" Properties=species:S:1:pos:R:3:initial_magmoms:R:1 pbc="T T T"
Si      -2.11348252      -0.66150432       0.76392304       0.00000000
Si       0.60678621      -2.10962016      -0.81922033       0.00000000
Si       1.28588373       0.75471570       1.84290962       0.00000000
Si      -0.27644130       1.49366268      -1.84511599       0.00000000
Si       3.04355844       1.74822651       0.54628479       0.00000000
Si      -1.32395346      -2.89553121      -1.84659840       0.00000000
Si      -1.77163524      -1.73801268       2.78934128       0.00000000
Si       0.08276949       2.59296075       2.73101023       0.00000000
Si      -3.44778569       1.20262554       1.18116934       0.00000000
Si      -1.90501776       0.60706314      -3.31887140       0.00000000
