10
Lattice="10.86 0.0 0.0 0.0 10.86 0.0 0.0 0.0 10.86" Properties=species:S:1:pos:R:3:initial_magmoms:R:1 pbc="T T T"
Si      -1.13376228       1.31205090      -1.31388624       0.00000000
Si       1.58123772       1.31205090       1.40111376       0.00000000
Si       1.58123772      -1.40294910      -1.31388624       0.00000000
Si      -2.38039254       0.05006460      -2.68479834       0.00000000
Si      -2.49126228       2.66955090       0.04361376       0.00000000
Si      -2.50871430      -0.06576816       2.69693982       0.00000000
Si       0.22373772       2.66955090      -2.67138624       0.00000000
Si       0.22373772       2.66955090       2.75861376       0.00000000
Si       0.11250960      -2.85164052      -2.65724652       0.00000000
Si       2.93873772       2.66955090       0.04361376       0.00000000
