10
Lattice="16.28999089631971 0.0 0.0 0.0 16.28999089631971 0.0 0.0 0.0 34.281931910070035" Properties=species:S:1:pos:R:3:initial_magmoms:R:1 pbc="T T T"
Si       1.48318821       1.33105590       1.22160339       0.00000000
Si      -0.83808792       1.35316143      -1.72387241       0.00000000
Si      -1.37067318      -1.57739817       1.12397525       0.00000000
Si       0.06356358       0.07947891      -3.48767879       0.00000000
Si      -0.01234782       2.50194852       2.66327942       0.00000000
Si      -0.11432322      -2.20745790      -3.00550315       0.00000000
Si       2.70172908      -0.21447414       2.64093444       0.00000000
Si      -2.73874715      -0.22279833       2.64255598       0.00000000
Si      -3.28527665       1.04215275      -1.86843939       0.00000000
Si      -0.02526579      -2.92915538       2.63961116       0.00000000
