10
Lattice="16.28999089631971 0.0 0.0 0.0 16.28999089631971 0.0 0.0 0.0 34.281931910070035" Properties=species:S:1:pos:R:3:initial_magmoms:R:1 pbc="T T T"
Si      -1.42089900       1.26231114       1.42307807       0.00000000
Si       0.17329791      -2.07832707       1.15033087       0.00000000
Si       2.20642023       0.47164437      -0.79575265       0.00000000
Si      -1.33081481       0.59562756      -1.93706736       0.00000000
Si      -3.54431534       0.56418786       0.61971483       0.00000000
Si       2.11900809       2.72089331      -1.38817904       0.00000000
Si      -1.71116906       2.90614319      -1.69997339       0.00000000
Si       0.85206963      -3.68702973      -0.37182204       0.00000000
Si      -1.40720448       3.48261371       0.66431565       0.00000000
Si      -3.42886811      -0.41376600      -1.62513589       0.00000000
