10
Lattice="16.28999089631971 0.0 0.0 0.0 16.28999089631971 0.0 0.0 0.0 34.281931910070035" Properties=species:S:1:pos:R:3:initial_magmoms:R:1 pbc="T T T"
Si      -1.35799956       1.35638848       1.36171338       0.00000000
Si       1.35912357      -1.35817413       1.36181622       0.00000000
Si      -1.36342413      -1.35355237      -1.39013997       0.00000000
Si       1.36357074       1.36112887      -1.38881669       0.00000000
Si       2.71358820       2.71078795       0.00017141       0.00000000
Si       2.71103067      -2.71597210       0.00342820       0.00000000
Si      -2.71706449       2.71409482      -0.00243402       0.00000000
Si      -2.71522209      -2.71716127       0.00140556       0.00000000
Si       0.00013032       2.71415998       2.71890154       0.00000000
Si       2.71445157      -0.00024924       2.71938149       0.00000000
