10
Lattice="16.28999089631971 0.0 0.0 0.0 16.28999089631971 0.0 0.0 0.0 34.281931910070035" Properties=species:S:1:pos:R:3:initial_magmoms:R:1 pbc="T T T"
Si       1.96185357       1.17856521      -0.24120781       0.00000000
Si      -2.36504736       0.17767503       0.12056962       0.00000000
Si       0.45299232      -1.37847283      -1.96199034       0.00000000
Si       1.02789900      -0.70047000       2.12482961       0.00000000
Si      -1.32887304       1.78667091      -2.52849958       0.00000000
Si      -2.91511179      -0.13188384      -2.18132626       0.00000000
Si       2.11576149       1.94167026      -2.35712411       0.00000000
Si      -0.07602543      -2.79138014       2.45969571       0.00000000
Si      -3.23949456       2.17236924       1.02842425       0.00000000
Si       3.41565462      -0.77113602       2.02674895       0.00000000
