10
Lattice="16.28999089631971 0.0 0.0 0.0 16.28999089631971 0.0 0.0 0.0 34.281931910070035" Properties=species:S:1:pos:R:3:initial_magmoms:R:1 pbc="T T T"
Si      -1.86373890      -0.33444999       1.35208015       0.00000000
Si       0.22934691      -1.91088053      -1.36884402       0.00000000
Si       2.01655539      -0.27974817       1.19907980       0.00000000
Si      -0.33083361       2.10116565      -1.19554876       0.00000000
Si      -1.16994780      -1.04906623      -2.99569401       0.00000000
Si       1.91259261       2.76338673      -0.66332147       0.00000000
Si       3.32087940       0.79592940      -0.39893906       0.00000000
Si      -1.45653777       1.14507297       3.04985949       0.00000000
Si      -3.11313303      -0.22804371      -1.76613756       0.00000000
Si      -1.77632676      -2.58369893       1.94450655       0.00000000
