10
Lattice="16.28999089631971 0.0 0.0 0.0 16.28999089631971 0.0 0.0 0.0 34.281931910070035" Properties=species:S:1:pos:R:3:initial_magmoms:R:1 pbc="T T T"
Si      -1.29427308      -1.27083177      -1.53314169       0.00000000
Si       1.20505275      -1.46359134       1.52729520       0.00000000
Si      -1.52003619       1.23872418       1.52379844       0.00000000
Si       1.27775502       1.74058650      -1.45086500       0.00000000
Si      -2.73308733      -2.63531475       0.10704882       0.00000000
Si       2.62083294      -2.81662245       0.10216021       0.00000000
Si       2.54822841      -0.11355759       2.91516228       0.00000000
Si       2.77996995       2.70879894       0.06256799       0.00000000
Si      -0.16526205       2.60310942       2.91300252       0.00000000
Si      -3.03445233       2.56935654       0.18225999       0.00000000
