10
Lattice="16.28999089631971 0.0 0.0 0.0 16.28999089631971 0.0 0.0 0.0 34.281931910070035" Properties=species:S:1:pos:R:3:initial_magmoms:R:1 pbc="T T T"
Si      -1.35568638      -1.35614250       1.35537122       0.00000000
Si       1.35764118      -1.35769005      -1.35759954       0.00000000
Si      -1.35788553       1.35754344      -1.35770239       0.00000000
Si       1.35899325       1.35827649       1.35883369       0.00000000
Si       2.71464705      -2.71438641       0.00020569       0.00000000
Si      -2.71485882      -2.71446786      -0.00006856       0.00000000
Si      -2.71477737       2.71480995       0.00000000       0.00000000
Si      -2.71464705       0.00169416      -2.71499340       0.00000000
Si       2.71581993       0.00070047      -2.71389637       0.00000000
Si       0.00034209      -2.71376739       2.71612470       0.00000000
