10
Lattice="16.28999089631971 0.0 0.0 0.0 16.28999089631971 0.0 0.0 0.0 34.281931910070035" Properties=species:S:1:pos:R:3:initial_magmoms:R:1 pbc="T T T"
Si       1.35057132      -1.35610992       1.35986215       0.00000000
Si       1.35568638       1.35705474      -1.35677678       0.00000000
Si      -1.35856971      -1.35856971      -1.35701675       0.00000000
Si      -1.35861858       1.35767376       1.35914223       0.00000000
Si       2.71339272      -0.00136836      -2.71417063       0.00000000
Si       2.71487511       2.71290402       0.00209120       0.00000000
Si      -0.00131949       2.71375110      -2.71458201       0.00000000
Si      -0.00159642      -2.71548436      -2.71410207       0.00000000
Si      -2.71464705       2.71529865      -0.00161125       0.00000000
Si      -2.71591767      -0.00107514      -2.71458201       0.00000000
