10
Lattice="16.28999089631971 0.0 0.0 0.0 16.28999089631971 0.0 0.0 0.0 34.281931910070035" Properties=species:S:1:pos:R:3:initial_magmoms:R:1 pbc="T T T"
Si      -1.77885171       0.39102516      -1.55602348       0.00000000
Si      -0.91481382       1.43153262       1.68968880       0.00000000
Si       1.08585882      -2.14373142       0.45930958       0.00000000
Si      -3.05382114       0.97720452       0.73497075       0.00000000
Si      -0.17524782       1.68824673      -3.02425088       0.00000000
Si       1.54987947       2.70948312      -1.64138554       0.00000000
Si       0.12668733       0.41723577       3.54739345       0.00000000
Si       1.92109599      -2.86816401      -1.64515655       0.00000000
Si       3.45036861       1.08004329      -1.65187581       0.00000000
Si       2.63080242      -0.99298953      -2.98588937       0.00000000
