10
Lattice="16.28999089631971 0.0 0.0 0.0 16.28999089631971 0.0 0.0 0.0 34.281931910070035" Properties=species:S:1:pos:R:3:initial_magmoms:R:1 pbc="T T T"
Si       1.04150115      -1.01429685       1.85770465       0.00000000
Si      -2.13900732      -0.45432810      -0.95471806       0.00000000
Si       0.91481382      -1.43153262      -1.68968880       0.00000000
Si       0.05188365       2.43457308       0.22067292       0.00000000
Si       1.96439481       2.64090222      -1.06270620       0.00000000
Si      -0.86403789      -1.04050746      -3.24571228       0.00000000
Si      -0.01886382       2.61456129       2.57011787       0.00000000
Si       0.78480333       0.64260792       3.56127764       0.00000000
Si      -3.26863248      -1.44821358       1.00432404       0.00000000
Si      -3.29819395       1.61896536      -1.08252117       0.00000000
