10
Lattice="16.28999089631971 0.0 0.0 0.0 16.28999089631971 0.0 0.0 0.0 34.281931910070035" Properties=species:S:1:pos:R:3:initial_magmoms:R:1 pbc="T T T"
Si       1.22723973      -0.66832983       1.82997055       0.00000000
Si      -2.17375389      -0.63732996       0.69763770       0.00000000
Si       0.55017846      -1.08924714      -2.04392420       0.00000000
Si       0.05020578       2.32945371      -0.49719114       0.00000000
Si      -3.15814230      -0.25656750      -1.36335891       0.00000000
Si      -1.69324776      -1.75146822      -2.57615149       0.00000000
Si       0.82367127      -2.99682243       1.91560686       0.00000000
Si       1.69624512       0.53383959      -3.33028585       0.00000000
Si       1.37603259       3.36202794       1.05015901       0.00000000
Si       0.43153839       0.36706257       3.76330118       0.00000000
