10
Lattice="16.28999089631971 0.0 0.0 0.0 16.28999089631971 0.0 0.0 0.0 34.281931910070035" Properties=species:S:1:pos:R:3:initial_magmoms:R:1 pbc="T T T"
Si      -2.12789754      -0.79825887       0.44449978       0.00000000
Si       0.79570134      -1.03539240      -1.93333063       0.00000000
Si       1.32944319      -0.78061680       1.77001142       0.00000000
Si       0.26124273       2.33188092      -0.54072921       0.00000000
Si       3.04464987      -1.75829373       0.42170228       0.00000000
Si       2.11274784       1.30510593       2.57820841       0.00000000
Si      -2.54409075       0.30366189       2.53408754       0.00000000
Si       3.09834171      -0.62490069      -1.73538665       0.00000000
Si       2.36690442       2.68744275       0.46232639       0.00000000
Si      -3.42428832       0.17529669      -1.23583005       0.00000000
