10
Lattice="16.28999089631971 0.0 0.0 0.0 16.28999089631971 0.0 0.0 0.0 34.281931910070035" Properties=species:S:1:pos:R:3:initial_magmoms:R:1 pbc="T T T"
Si      -1.22723973       0.66832983      -1.82997055       0.00000000
Si      -0.79570134       1.03539240       1.93333063       0.00000000
Si       2.30264037       0.41049171       0.19794399       0.00000000
Si      -0.40356846      -2.32849260       0.08563631       0.00000000
Si       2.24894853      -0.72290133       2.35503291       0.00000000
Si       1.42496775      -2.77081497       1.49195051       0.00000000
Si      -3.40099362       0.03099987      -1.13233284       0.00000000
Si      -0.53445861       3.36727332       1.39260142       0.00000000
Si       0.53374185       0.25477560       3.70334205       0.00000000
Si       3.15727893      -0.10850769      -2.03878191       0.00000000
