10
Lattice="16.28999089631971 0.0 0.0 0.0 16.28999089631971 0.0 0.0 0.0 34.281931910070035" Properties=species:S:1:pos:R:3:initial_magmoms:R:1 pbc="T T T"
Si       1.35635427       1.35651717      -1.35811377       0.00000000
Si      -1.35899325      -1.35827649      -1.35883369       0.00000000
Si       1.35834165      -1.36016613       1.35931364       0.00000000
Si      -1.36223496       1.35954711       1.36383886       0.00000000
Si      -2.71467963      -2.71441899      -0.00346248       0.00000000
Si       2.71381626      -0.00057015      -2.71639896       0.00000000
Si      -0.00153126       2.71482624      -2.71633039       0.00000000
Si       2.70842427       0.02897991       2.72277540       0.00000000
Si       2.71484253      -2.71681362       0.00023997       0.00000000
Si      -2.71551042       2.71639008      -0.00167982       0.00000000
