10
Lattice="16.28999089631971 0.0 0.0 0.0 16.28999089631971 0.0 0.0 0.0 34.281931910070035" Properties=species:S:1:pos:R:3:initial_magmoms:R:1 pbc="T T T"
Si      -1.33418358       1.31688360      -1.48074031       0.00000000
Si       1.72512729       1.02123639       1.38286534       0.00000000
Si       1.36822968      -1.41343443      -1.47007863       0.00000000
Si      -1.60360389      -1.29722157       1.46822740       0.00000000
Si       0.17524782      -1.68824673       3.02425088       0.00000000
Si      -2.67473655       2.72749986      -0.02927679       0.00000000
Si       2.80605024      -2.68123626       0.03836150       0.00000000
Si       2.77780338       2.72279205       0.04634920       0.00000000
Si       0.01811448       2.66789475      -2.85431525       0.00000000
Si      -2.78026317      -2.76703569      -0.04946886       0.00000000
