10
Lattice="16.28999089631971 0.0 0.0 0.0 16.28999089631971 0.0 0.0 0.0 34.281931910070035" Properties=species:S:1:pos:R:3:initial_magmoms:R:1 pbc="T T T"
Si       2.11247091       0.28054638       0.96534546       0.00000000
Si      -1.53280755      -0.30336867       1.74659684       0.00000000
Si      -0.80366715       1.97195337      -0.99115977       0.00000000
Si       0.25669782      -1.65690477      -1.70357299       0.00000000
Si       1.48590864       0.00195480       3.19658625       0.00000000
Si       3.13194798      -1.79365932       0.36349153       0.00000000
Si      -3.54149487       0.39224691       0.76743576       0.00000000
Si      -0.78480333      -0.64260792      -3.56127764       0.00000000
Si      -0.59895072       0.96643683       3.56114051       0.00000000
Si       2.66673816      -1.84186143      -1.97021801       0.00000000
