10
Lattice="16.28999089631971 0.0 0.0 0.0 16.28999089631971 0.0 0.0 0.0 34.281931910070035" Properties=species:S:1:pos:R:3:initial_magmoms:R:1 pbc="T T T"
Si       2.08485936      -0.96448203      -0.36455427       0.00000000
Si      -0.67836447      -0.49288653       2.20724342       0.00000000
Si      -0.93385683      -1.26980550      -1.81454367       0.00000000
Si      -0.21401802       2.38964526       0.23013474       0.00000000
Si       3.41068617       0.06809220       1.18279588       0.00000000
Si      -2.45843793       2.40104826       1.12047129       0.00000000
Si      -2.83393872       0.36745353       2.33912609       0.00000000
Si       0.59895072      -0.96643683      -3.56114051       0.00000000
Si       2.71142163      -0.68589045      -2.59579505       0.00000000
Si       2.03465358      -3.29393574       0.13263687       0.00000000
