10
Lattice="16.28999089631971 0.0 0.0 0.0 16.28999089631971 0.0 0.0 0.0 34.281931910070035" Properties=species:S:1:pos:R:3:initial_magmoms:R:1 pbc="T T T"
Si      -0.27973188      -2.25868995       0.45286457       0.00000000
Si      -2.15557425       0.86034006       0.13188267       0.00000000
Si       0.67836447       0.49288653      -2.20724342       0.00000000
Si       1.37989332       1.01889063       1.65941784       0.00000000
Si       0.46434645       2.88253179      -1.97710868       0.00000000
Si      -1.78007346       2.89393479      -1.08677213       0.00000000
Si       3.40579917      -0.10210572       1.14796541       0.00000000
Si      -2.57607779       0.52041663       2.50491360       0.00000000
Si       0.53926416      -3.43837917      -1.37696885       0.00000000
Si       2.76322383      -0.47159550      -2.57179769       0.00000000
