10
Lattice="16.28999089631971 0.0 0.0 0.0 16.28999089631971 0.0 0.0 0.0 34.281931910070035" Properties=species:S:1:pos:R:3:initial_magmoms:R:1 pbc="T T T"
Si       1.35780408       1.35555738      -1.35807949       0.00000000
Si      -1.35876519       1.35648439       1.35735957       0.00000000
Si      -1.35681039      -1.35949824      -1.35794236       0.00000000
Si       1.35661491      -1.36265850       1.36164481       0.00000000
Si      -2.70759348       0.00114030       2.70258333       0.00000000
Si      -2.71340901       2.71324189       0.00006856       0.00000000
Si       0.00011403       2.71363774      -2.71482199       0.00000000
Si      -2.71376739      -2.71476108      -0.00054851       0.00000000
Si       2.71604799       2.71279392      -0.00010285       0.00000000
Si      -2.71423980      -0.00192222      -2.71537050       0.00000000
