10
Lattice="16.28999089631971 0.0 0.0 0.0 16.28999089631971 0.0 0.0 0.0 34.281931910070035" Properties=species:S:1:pos:R:3:initial_magmoms:R:1 pbc="T T T"
Si       1.05107967      -2.09385144      -0.18464259       0.00000000
Si       1.28344023       1.63187586      -1.14957667       0.00000000
Si      -1.76393007      -0.34582041      -1.60898909       0.00000000
Si      -0.72223344       0.95905746       2.16377391       0.00000000
Si       0.16783587      -3.21101964       1.69736796       0.00000000
Si      -0.80964558       3.20830640       1.57134751       0.00000000
Si      -3.24755648       1.31231818      -1.11330636       0.00000000
Si       1.05409332       3.54275639       0.21926736       0.00000000
Si      -0.11585448       2.49369016      -2.77642665       0.00000000
Si       1.12650237      -2.54627361      -2.53696722       0.00000000
