10
Lattice="16.28999089631971 0.0 0.0 0.0 16.28999089631971 0.0 0.0 0.0 34.281931910070035" Properties=species:S:1:pos:R:3:initial_magmoms:R:1 pbc="T T T"
Si      -0.38327112       2.32528347       0.05128580       0.00000000
Si       1.97109000      -0.22830435      -1.31361580       0.00000000
Si      -1.96232370      -0.94610691      -0.95890045       0.00000000
Si       0.69877584      -0.76066155       2.15914584       0.00000000
Si       1.79729199       3.02161581      -0.45540144       0.00000000
Si       3.01011507      -0.21414834       1.91858939       0.00000000
Si      -1.60911317       2.65626369      -1.92421163       0.00000000
Si      -1.97601821      -3.16640947      -0.20013803       0.00000000
Si       1.56388887      -1.70782731      -3.01139515       0.00000000
Si       3.64602780      -1.28469456      -0.08395650       0.00000000
