10
Lattice="16.28999089631971 0.0 0.0 0.0 16.28999089631971 0.0 0.0 0.0 34.281931910070035" Properties=species:S:1:pos:R:3:initial_magmoms:R:1 pbc="T T T"
Si      -1.35228177      -1.34093253       1.37552215       0.00000000
Si       1.36917450       1.37586969       1.36750017       0.00000000
Si      -1.28169720       1.38561111      -1.44773022       0.00000000
Si       1.24660854      -1.50274598      -1.38264251       0.00000000
Si       2.01679974       0.34466382      -2.55705233       0.00000000
Si       0.55443015       2.23111098      -2.76849522       0.00000000
Si      -2.70435177      -2.68643996       0.00149469       0.00000000
Si       2.71985985      -2.70129313      -0.00608162       0.00000000
Si       0.00672777      -2.69637141       2.72818509       0.00000000
Si      -2.70637173       0.01658322       2.72856219       0.00000000
