10
Lattice="16.28999089631971 0.0 0.0 0.0 16.28999089631971 0.0 0.0 0.0 34.281931910070035" Properties=species:S:1:pos:R:3:initial_magmoms:R:1 pbc="T T T"
Si      -1.34711784      -1.35033854      -1.39657812       0.00000000
Si       1.36840887       1.36777845      -1.39654384       0.00000000
Si      -1.37109672       1.41229902       1.43079151       0.00000000
Si       1.36503684      -1.30131492       1.66671990       0.00000000
Si       0.44142642       2.30249865       2.66319337       0.00000000
Si       2.11827015       0.54620859       3.07601662       0.00000000
Si      -2.68376121      -2.71784219      -0.01151874       0.00000000
Si       2.72029968      -2.69990690       0.00387386       0.00000000
Si       2.73489552       2.70258105      -0.03887573       0.00000000
Si      -2.70629028       2.74920303      -0.01782661       0.00000000
