10
Lattice="16.28999089631971 0.0 0.0 0.0 16.28999089631971 0.0 0.0 0.0 34.281931910070035" Properties=species:S:1:pos:R:3:initial_magmoms:R:1 pbc="T T T"
Si       1.90609290       0.61680456       1.40840540       0.00000000
Si       1.66228047       0.95190615      -1.53559143       0.00000000
Si      -0.82780893      -1.59667412      -1.67700448       0.00000000
Si      -1.67202189       1.82938329      -0.12423779       0.00000000
Si      -0.72539370      -0.61132786       2.54673758       0.00000000
Si      -2.48099958      -2.54883833      -0.31978204       0.00000000
Si       0.93737547       2.70881523       2.15160381       0.00000000
Si       0.32708691       2.28881016      -2.98420956       0.00000000
Si      -2.39067153      -0.44345615      -2.99751096       0.00000000
Si       3.47480361       1.84210578      -0.30318958       0.00000000
