10
Lattice="16.28999089631971 0.0 0.0 0.0 16.28999089631971 0.0 0.0 0.0 34.281931910070035" Properties=species:S:1:pos:R:3:initial_magmoms:R:1 pbc="T T T"
Si       1.81252314       0.89019963       1.23240186       0.00000000
Si      -1.33519356       1.33690401      -1.44861812       0.00000000
Si       1.37109672      -1.41229902      -1.43079151       0.00000000
Si      -1.66228047      -0.95190615       1.53559143       0.00000000
Si       0.24381243      -0.33510159       2.94399683       0.00000000
Si      -2.49008940      -2.54858027      -0.14141305       0.00000000
Si      -3.33430236       0.87747714       1.41135364       0.00000000
Si       2.72324817       2.58730812      -0.14271576       0.00000000
Si      -2.62459593       2.75265162       0.07062082       0.00000000
Si       2.73613356      -2.71361394       0.23592839       0.00000000
