10
Lattice="16.28999089631971 0.0 0.0 0.0 16.28999089631971 0.0 0.0 0.0 34.281931910070035" Properties=species:S:1:pos:R:3:initial_magmoms:R:1 pbc="T T T"
Si       0.15390792       0.76310505      -2.11591630       0.00000000
Si      -1.96185357      -1.17856521       0.24120781       0.00000000
Si       2.09368854      -0.09791919       0.99520504       0.00000000
Si      -0.93395457      -1.87903521       2.36603742       0.00000000
Si       1.45380105      -1.94970123       2.26795675       0.00000000
Si       1.12262535      -1.32890562      -2.85911472       0.00000000
Si      -1.50886125      -2.55703804      -1.72078253       0.00000000
Si      -1.83985776       2.98411623       0.53414708       0.00000000
Si       2.44561770       1.13643927      -2.57313468       0.00000000
Si       2.48062491       1.86077412       2.31886545       0.00000000
