10
Lattice="16.28999089631971 0.0 0.0 0.0 16.28999089631971 0.0 0.0 0.0 34.281931910070035" Properties=species:S:1:pos:R:3:initial_magmoms:R:1 pbc="T T T"
Si       0.13665681       1.65243154      -1.62835839       0.00000000
Si       0.40376394       0.29684615       2.28060679       0.00000000
Si      -0.33819669      -2.13610837      -1.06757424       0.00000000
Si       2.52942975       1.29087499       1.67436477       0.00000000
Si       1.67453055       0.96738817      -3.26196193       0.00000000
Si       3.84953877       0.09831341       0.20891421       0.00000000
Si       0.96063759       3.70034518      -0.76527599       0.00000000
Si      -1.22220612       1.67109988       3.36240804       0.00000000
Si       1.35923760      -2.68412026      -2.59881186       0.00000000
Si      -1.69187940       2.09475391      -3.03467259       0.00000000
