10
Lattice="16.28999089631971 0.0 0.0 0.0 16.28999089631971 0.0 0.0 0.0 34.281931910070035" Properties=species:S:1:pos:R:3:initial_magmoms:R:1 pbc="T T T"
Si      -1.35516510      -1.35754344      -1.35605686       0.00000000
Si       1.35819504      -1.35726651       1.35667393       0.00000000
Si       1.35826020       1.35705474      -1.35749670       0.00000000
Si      -1.35770634       1.35842310       1.35739385       0.00000000
Si      -0.00107514      -2.71505919      -2.70909690       0.00000000
Si      -2.71339272       0.00136836       2.71417063       0.00000000
Si      -2.71498914      -2.71411600       0.00006856       0.00000000
Si       2.71538010      -2.71414532      -0.00020569       0.00000000
Si       0.00094482      -2.71495982       2.71478771       0.00000000
Si      -2.71471221       2.71511946      -0.00041138       0.00000000
