10
Lattice="16.28999089631971 0.0 0.0 0.0 16.28999089631971 0.0 0.0 0.0 34.281931910070035" Properties=species:S:1:pos:R:3:initial_magmoms:R:1 pbc="T T T"
Si       1.35650088      -1.35664749      -1.35907367       0.00000000
Si      -1.35834165       1.36016613      -1.35931364       0.00000000
Si       1.35008262       1.38914604       1.36346176       0.00000000
Si      -1.37046141      -1.36161594       1.38876184       0.00000000
Si       2.71002069       2.71463076      -0.00181694       0.00000000
Si       2.71151937      -2.71451673      -0.00133700       0.00000000
Si      -2.71699281      -2.71187775      -0.00202264       0.00000000
Si       2.71235016       0.00161271      -2.71807877       0.00000000
Si      -0.00268785      -2.71249677      -2.71794164       0.00000000
Si      -0.00198738       2.71668330      -2.71742742       0.00000000
