10
Lattice="16.28999089631971 0.0 0.0 0.0 16.28999089631971 0.0 0.0 0.0 34.281931910070035" Properties=species:S:1:pos:R:3:initial_magmoms:R:1 pbc="T T T"
Si       0.46146312       2.14325901       0.84443302       0.00000000
Si      -2.14830891       0.33502014      -0.97806406       0.00000000
Si       0.53996463      -0.97565697       2.14341043       0.00000000
Si       1.70696394      -0.83652408      -1.52705523       0.00000000
Si       2.78500356      -0.32485518       1.90436238       0.00000000
Si      -3.29437557      -1.28806659       0.30829759       0.00000000
Si       2.72533329       1.97882775       1.40974239       0.00000000
Si       0.18656937      -3.25317816       1.88135919       0.00000000
Si       3.53709657      -1.32941061      -0.04388090       0.00000000
Si       2.09764701       1.02275136      -2.99720242       0.00000000
