10
Lattice="16.28999089631971 0.0 0.0 0.0 16.28999089631971 0.0 0.0 0.0 34.281931910070035" Properties=species:S:1:pos:R:3:initial_magmoms:R:1 pbc="T T T"
Si      -0.35339526      -2.27752119      -0.26205123       0.00000000
Si       2.24503893       0.65080179      -0.23904804       0.00000000
Si      -0.53996463       0.97565697      -2.14341043       0.00000000
Si      -0.85463856       0.51899940       2.23672590       0.00000000
Si      -0.07850151       3.11891598      -1.29897741       0.00000000
Si      -2.42605341      -2.27986695      -1.57073043       0.00000000
Si       2.99713194      -0.35375364      -2.18729132       0.00000000
Si       2.18536866       2.95448472      -0.73366803       0.00000000
Si      -3.15727893       0.10850769       2.03878191       0.00000000
Si       3.24776988       0.44369073       1.84282628       0.00000000
