10
Lattice="16.28999089631971 0.0 0.0 0.0 16.28999089631971 0.0 0.0 0.0 34.281931910070035" Properties=species:S:1:pos:R:3:initial_magmoms:R:1 pbc="T T T"
Si       0.82803699       1.83827763       1.23280437       0.00000000
Si       1.46236959      -1.88644716       0.21144289       0.00000000
Si      -1.83612735      -0.84549987       1.32076500       0.00000000
Si       0.65568879      -0.32798286      -2.76134259       0.00000000
Si       0.52657425      -2.47655241      -1.90100275       0.00000000
Si       2.16103140       0.50226957       2.76107318       0.00000000
Si      -0.55443015      -2.23111098       2.76849522       0.00000000
Si       3.34925658      -0.96345576       1.30126885       0.00000000
Si       2.62285290       2.80416060      -0.14641821       0.00000000
Si      -3.22506162      -2.09632752      -0.21295948       0.00000000
