10
Lattice="16.28999089631971 0.0 0.0 0.0 16.28999089631971 0.0 0.0 0.0 34.281931910070035" Properties=species:S:1:pos:R:3:initial_magmoms:R:1 pbc="T T T"
Si       1.34936586       1.35417141       1.36897430       0.00000000
Si      -1.36655833      -1.36345671       1.36403769       0.00000000
Si       1.49553603      -1.17089262      -1.44167603       0.00000000
Si      -1.42338925       1.30095198      -1.42784326       0.00000000
Si       0.01234782      -2.50194852      -2.66327942       0.00000000
Si       2.70858717       2.70314631      -0.02492641       0.00000000
Si      -2.72257121       2.69962767       0.00524514       0.00000000
Si       2.71407690      -2.71642266      -0.02234498       0.00000000
Si       2.70700704      -0.00645084       2.72708807       0.00000000
Si      -0.00705357       2.71081890       2.72797940       0.00000000
