10
Lattice="16.28999089631971 0.0 0.0 0.0 16.28999089631971 0.0 0.0 0.0 34.281931910070035" Properties=species:S:1:pos:R:3:initial_magmoms:R:1 pbc="T T T"
Si       1.25747397       1.50918705      -1.25681061       0.00000000
Si      -0.45234072       1.12210407       2.05060919       0.00000000
Si      -1.93067451      -0.45667386      -1.35256010       0.00000000
Si       1.62421074      -1.75293432      -0.30939461       0.00000000
Si      -0.01197315      -0.63242667       3.53224083       0.00000000
Si       0.26006985       1.10574891      -3.44574747       0.00000000
Si      -0.90323163      -1.03754268      -3.46545959       0.00000000
Si      -2.86637211       1.75785390      -1.65605821       0.00000000
Si       3.68450478      -0.65166516       0.36990225       0.00000000
Si       1.14619698      -2.12734368      -2.92894705       0.00000000
