10
Lattice="16.28999089631971 0.0 0.0 0.0 16.28999089631971 0.0 0.0 0.0 34.281931910070035" Properties=species:S:1:pos:R:3:initial_magmoms:R:1 pbc="T T T"
Si      -0.50231844       1.34348517       1.90151698       0.00000000
Si      -1.70772957      -0.40656582      -1.62167341       0.00000000
Si       1.68200766       1.16427888      -1.25327957       0.00000000
Si       0.93569760      -2.21452776       0.30349811       0.00000000
Si       3.12644196      -0.65210499      -1.78968926       0.00000000
Si      -3.62024073      -0.61289496      -0.33829429       0.00000000
Si       0.19142379       0.04681746       3.72511109       0.00000000
Si       2.86637211      -1.75785390       1.65605821       0.00000000
Si       1.96314048      -2.79539658      -1.80940138       0.00000000
Si       0.32301441       3.56667921       1.49167625       0.00000000
