10
Lattice="16.28999089631971 0.0 0.0 0.0 16.28999089631971 0.0 0.0 0.0 34.281931910070035" Properties=species:S:1:pos:R:3:initial_magmoms:R:1 pbc="T T T"
Si      -2.22260760       0.68256729       0.01844369       0.00000000
Si       0.44036757      -1.75453074       1.48163164       0.00000000
Si       1.06389990       1.79066196       1.08231548       0.00000000
Si       0.45234072      -1.12210407      -2.05060919       0.00000000
Si      -3.18888153      -1.48856391       0.26098849       0.00000000
Si       0.84924657       1.08227502       3.35123213       0.00000000
Si       3.34003644       1.52793684       0.60298524       0.00000000
Si       1.70981469       0.38708298      -3.30741979       0.00000000
Si      -0.20289195      -1.02903930       3.59747938       0.00000000
Si       2.70423774      -1.91896200       2.04694102       0.00000000
