10
Lattice="16.28999089631971 0.0 0.0 0.0 16.28999089631971 0.0 0.0 0.0 34.281931910070035" Properties=species:S:1:pos:R:3:initial_magmoms:R:1 pbc="T T T"
Si       0.64325952      -0.72549144      -2.11584774       0.00000000
Si       0.56317788      -1.15466778       1.95780794       0.00000000
Si      -2.28672504       0.29445804       0.44210004       0.00000000
Si       1.05213852       2.11131432      -0.24624725       0.00000000
Si       2.90712969      -0.88992270      -1.55053836       0.00000000
Si      -0.34829649       3.24166113       1.22002607       0.00000000
Si      -2.38995477       2.63322963       0.26338823       0.00000000
Si      -0.13287753      -3.32540802       1.41985557       0.00000000
Si      -0.86431482      -0.01306458       3.61756860       0.00000000
Si       0.20289195       1.02903930      -3.59747938       0.00000000
