10
Lattice="16.28999089631971 0.0 0.0 0.0 16.28999089631971 0.0 0.0 0.0 34.281931910070035" Properties=species:S:1:pos:R:3:initial_magmoms:R:1 pbc="T T T"
Si      -1.28734983      -1.36894644       1.46231860       0.00000000
Si       1.28441763       1.29914379       1.54899709       0.00000000
Si       1.83008376      -0.68836653      -1.43500819       0.00000000
Si       2.66030361       2.38352022      -0.05690804       0.00000000
Si       0.76118283       3.20756616      -1.49524158       0.00000000
Si      -2.78956476      -2.33715888      -0.05111439       0.00000000
Si       2.55042756      -0.12251709       2.95229790       0.00000000
Si      -0.15897411       2.59167384       2.94749843       0.00000000
Si      -1.58447943      -3.05255052      -2.00299156       0.00000000
Si      -1.44288675       2.41054533      -2.88441480       0.00000000
