10
Lattice="16.28999089631971 0.0 0.0 0.0 16.28999089631971 0.0 0.0 0.0 34.281931910070035" Properties=species:S:1:pos:R:3:initial_magmoms:R:1 pbc="T T T"
Si       2.24676567      -0.08262288       0.66016753       0.00000000
Si      -0.74161854       1.52252856       1.70717260       0.00000000
Si      -0.82533285      -2.22319404       0.40984073       0.00000000
Si      -0.34171533       0.57964707      -2.31214619       0.00000000
Si       0.06074541       0.22087611       3.51403711       0.00000000
Si       3.02792004      -1.61538156      -0.94882156       0.00000000
Si      -2.68524360       0.11135844      -2.60357706       0.00000000
Si      -3.06463770      -1.95071121       1.06757424       0.00000000
Si       2.33044740      -0.22820661       3.00100771       0.00000000
Si      -0.32301441      -3.56667921      -1.49167625       0.00000000
