10
Lattice="16.28999089631971 0.0 0.0 0.0 16.28999089631971 0.0 0.0 0.0 34.281931910070035" Properties=species:S:1:pos:R:3:initial_magmoms:R:1 pbc="T T T"
Si      -1.47325131       1.19854714      -1.37656089       0.00000000
Si      -1.35690813      -1.35293668       1.37269046       0.00000000
Si       1.36262592       1.36075808       1.37090780       0.00000000
Si       1.28394522      -1.31483437      -1.57276335       0.00000000
Si       2.71541268      -2.70393154      -0.02821747       0.00000000
Si      -2.71985985       2.70129313       0.00608162       0.00000000
Si       2.71257822       2.71435771      -0.01580741       0.00000000
Si      -2.71404432      -2.71704499       0.00393900       0.00000000
Si      -0.00030951      -2.71341232       2.73265546       0.00000000
Si      -2.71313208       0.00492171       2.73426671       0.00000000
