10
Lattice="16.28999089631971 0.0 0.0 0.0 16.28999089631971 0.0 0.0 0.0 34.281931910070035" Properties=species:S:1:pos:R:3:initial_magmoms:R:1 pbc="T T T"
Si      -1.35702216      -1.35759937      -1.35691391       0.00000000
Si      -1.35330804       1.35931905       1.36020497       0.00000000
Si       1.35781555       1.35811359      -1.35694819       0.00000000
Si       1.35691418      -1.35535148       1.36335891       0.00000000
Si       0.01317861       2.69412165       2.71787308       0.00000000
Si      -2.71404432      -2.71366055       0.00044567       0.00000000
Si      -2.71437012       0.00084382      -2.71458201       0.00000000
Si       0.00071676      -2.71480085      -2.71478771       0.00000000
Si      -2.71422351       2.71591767      -0.00003428       0.00000000
Si       0.00114030       2.71523349      -2.71495911       0.00000000
