10
Lattice="16.28999089631971 0.0 0.0 0.0 16.28999089631971 0.0 0.0 0.0 34.281931910070035" Properties=species:S:1:pos:R:3:initial_magmoms:R:1 pbc="T T T"
Si      -1.36107185       1.35480672      -1.35375997       0.00000000
Si       1.35676152       1.35584928       1.35729101       0.00000000
Si       1.35641943      -1.35664749      -1.35900510       0.00000000
Si      -1.35777313      -1.35889551       1.35694819       0.00000000
Si      -0.00739566       2.70943425      -2.68966932       0.00000000
Si      -2.71511036       2.71264338       0.00140556       0.00000000
Si      -0.00013032       2.71311579       2.71499340       0.00000000
Si      -2.71471341      -0.00166158       2.71492483       0.00000000
Si       2.71464705      -0.00169416       2.71499340       0.00000000
Si      -2.71616632      -2.71422351      -0.00034282       0.00000000
