10
Lattice="16.28999089631971 0.0 0.0 0.0 16.28999089631971 0.0 0.0 0.0 34.281931910070035" Properties=species:S:1:pos:R:3:initial_magmoms:R:1 pbc="T T T"
Si       0.44142642      -2.25228472      -0.01196440       0.00000000
Si       1.97394631       1.23885450       0.06506714       0.00000000
Si      -1.26698733       0.52245288      -1.91457840       0.00000000
Si      -0.85685400       0.34902954       2.21444263       0.00000000
Si      -1.09952613       2.64995946       1.88814702       0.00000000
Si       2.14475022      -2.30252145       1.57107325       0.00000000
Si       0.72764172      -2.55395339      -2.32558471       0.00000000
Si       3.33326699      -0.30012696       1.13750942       0.00000000
Si       1.16416715       3.07362978       1.36575865       0.00000000
Si      -3.31659513       1.18415268      -0.91868772       0.00000000
