10
Lattice="16.28999089631971 0.0 0.0 0.0 16.28999089631971 0.0 0.0 0.0 34.281931910070035" Properties=species:S:1:pos:R:3:initial_magmoms:R:1 pbc="T T T"
Si       1.38274407      -1.29702609      -1.32695148       0.00000000
Si      -0.91072503      -1.69710849       1.37511762       0.00000000
Si       1.72401957       1.05138918       1.25046845       0.00000000
Si      -1.35920502       1.44314739      -1.30929628       0.00000000
Si      -1.15644339      -0.45706482       3.37269263       0.00000000
Si       0.40941657       2.61255762       2.56734103       0.00000000
Si       2.65233780      -2.61446355       0.24785851       0.00000000
Si      -2.72324817      -2.58730812       0.14271576       0.00000000
Si       0.01625742      -2.63182869      -2.68461959       0.00000000
Si      -2.70368388       0.08024454      -2.68520238       0.00000000
