10
Lattice="16.28999089631971 0.0 0.0 0.0 16.28999089631971 0.0 0.0 0.0 34.281931910070035" Properties=species:S:1:pos:R:3:initial_magmoms:R:1 pbc="T T T"
Si       0.05232348      -2.20920093      -0.80230050       0.00000000
Si      -2.04942861       1.08980100      -0.53651253       0.00000000
Si       1.61818344       0.86042151      -1.60765210       0.00000000
Si       0.47801376       0.37440936       2.61955245       0.00000000
Si       3.20274432      -0.61186869       0.79657542       0.00000000
Si      -0.88612713       3.23309259      -0.51680041       0.00000000
Si       2.22467643      -2.57911425       0.04021273       0.00000000
Si      -2.23938630      -2.58253515      -0.34508212       0.00000000
Si       3.13136154       1.67389524       0.04055555       0.00000000
Si       0.08404011       2.48787396      -2.64193856       0.00000000
