10
Lattice="16.28999089631971 0.0 0.0 0.0 16.28999089631971 0.0 0.0 0.0 34.281931910070035" Properties=species:S:1:pos:R:3:initial_magmoms:R:1 pbc="T T T"
Si      -0.75209301       1.00455543       1.94824328       0.00000000
Si       0.24267213      -2.30092992       0.32629561       0.00000000
Si       2.26369328       0.42367032      -0.52238837       0.00000000
Si      -1.83013263       0.49288653      -1.48317433       0.00000000
Si       1.09952613      -2.64995946      -1.88814702       0.00000000
Si      -0.81176328       3.30823836       1.45362329       0.00000000
Si      -2.99713194       0.35375364       2.18729132       0.00000000
Si      -3.53709657       1.32941061       0.04388090       0.00000000
Si      -1.90402407      -3.22959024       0.59160363       0.00000000
Si       3.52502798       0.28616643       1.46692469       0.00000000
