10
Lattice="16.28999089631971 0.0 0.0 0.0 16.28999089631971 0.0 0.0 0.0 34.281931910070035" Properties=species:S:1:pos:R:3:initial_magmoms:R:1 pbc="T T T"
Si       1.70829876       0.99513981      -1.24908346       0.00000000
Si       1.38344450      -1.30624623       1.42094231       0.00000000
Si      -1.33760448       1.41377652       1.41951960       0.00000000
Si      -0.87553863      -1.70841375      -1.49805068       0.00000000
Si       0.12940776       1.84515201      -2.85739860       0.00000000
Si      -2.05794828       0.84792708      -2.96778649       0.00000000
Si      -2.67035454      -2.67429672      -0.11882810       0.00000000
Si       2.68262647      -2.70492192      -0.01214610       0.00000000
Si       0.02878443      -2.65419486       2.78535710       0.00000000
Si      -2.60361441       2.83543740       0.01621879       0.00000000
