10
Lattice="16.28999089631971 0.0 0.0 0.0 16.28999089631971 0.0 0.0 0.0 34.281931910070035" Properties=species:S:1:pos:R:3:initial_magmoms:R:1 pbc="T T T"
Si       1.35703845       1.35770634       1.35759954       0.00000000
Si      -1.35816246      -1.35707103       1.35735957       0.00000000
Si       1.35884664      -1.35687555      -1.35845659       0.00000000
Si      -1.35793440       1.35617508      -1.36349604       0.00000000
Si       2.71285804      -2.71195920      -0.00047995       0.00000000
Si       2.71391400       2.71490769       0.00126843       0.00000000
Si       2.71431094       0.00060273       2.71478771       0.00000000
Si      -0.00102627      -2.71464705       2.71458201       0.00000000
Si      -0.00078192       2.71573848       2.71506196       0.00000000
Si      -2.71570590      -2.71518462       0.00017141       0.00000000
