10
Lattice="16.28999089631971 0.0 0.0 0.0 16.28999089631971 0.0 0.0 0.0 34.281931910070035" Properties=species:S:1:pos:R:3:initial_magmoms:R:1 pbc="T T T"
Si      -2.27691846       0.43406334      -0.03671597       0.00000000
Si       1.05751422       2.05701975       0.31498257       0.00000000
Si       0.15011235      -1.72678887       1.58999689       0.00000000
Si       0.74316609      -1.52857215      -1.66829687       0.00000000
Si       3.11064296       1.00541880      -0.06410725       0.00000000
Si      -1.91018169      -2.82805803       0.91070003       0.00000000
Si       2.91890803      -0.74577249      -2.07745195       0.00000000
Si      -0.02678076      -0.70332075       3.74760004       0.00000000
Si       0.66756420       2.90118384       2.47090591       0.00000000
Si      -3.53439243      -1.07512371       1.22009464       0.00000000
