10
Lattice="16.28999089631971 0.0 0.0 0.0 16.28999089631971 0.0 0.0 0.0 34.281931910070035" Properties=species:S:1:pos:R:3:initial_magmoms:R:1 pbc="T T T"
Si       1.29132459       1.45945368      -1.38355098       0.00000000
Si      -2.29415328       0.50077089      -0.47525069       0.00000000
Si       1.52028054      -1.88776665      -0.08848172       0.00000000
Si       0.26419122      -0.81568917       2.41728893       0.00000000
Si       3.33117468      -0.34557606       0.28502014       0.00000000
Si      -2.89621539      -1.79753634      -0.26657645       0.00000000
Si       2.45154726       0.18153576       2.52767682       0.00000000
Si       1.24102107       0.41904396      -3.41581932       0.00000000
Si      -1.46872269      -2.93913954      -1.92633711       0.00000000
Si       0.36481455       3.56363298      -1.33521343       0.00000000
