10
Lattice="16.28999089631971 0.0 0.0 0.0 16.28999089631971 0.0 0.0 0.0 34.281931910070035" Properties=species:S:1:pos:R:3:initial_magmoms:R:1 pbc="T T T"
Si      -2.13392062      -0.00138465      -0.92167025       0.00000000
Si       1.11936246      -2.02608504       0.37720431       0.00000000
Si      -0.75701259       0.97054191       2.03446239       0.00000000
Si       1.12962516       0.99388548      -1.95904209       0.00000000
Si      -0.34572919      -2.77837353       2.03154842       0.00000000
Si      -2.20530340       2.28437928      -1.67769012       0.00000000
Si      -1.15550834      -0.94359825       3.33223993       0.00000000
Si      -0.02956146       3.06717894      -2.08684521       0.00000000
Si       3.26863248       1.44821358      -1.00432404       0.00000000
Si      -2.79835714       2.08616256       1.58060364       0.00000000
