10
Lattice="16.28999089631971 0.0 0.0 0.0 16.28999089631971 0.0 0.0 0.0 34.281931910070035" Properties=species:S:1:pos:R:3:initial_magmoms:R:1 pbc="T T T"
Si      -0.55597770       1.76709033      -1.40737694       0.00000000
Si      -1.05751422      -2.05701975      -0.31498257       0.00000000
Si       2.05312874      -1.05160095      -0.37908981       0.00000000
Si      -0.38995002       0.84416409       2.15592334       0.00000000
Si       1.90781868       0.45690192       2.92956413       0.00000000
Si       2.85403148      -1.46105010       1.78118733       0.00000000
Si       0.65598757       1.20961395      -3.40066670       0.00000000
Si      -3.33443268      -1.62295641      -0.35169854       0.00000000
Si       0.29892150       3.84883830      -0.66469275       0.00000000
Si      -1.70421093      -0.48210255       3.55870649       0.00000000
