10
Lattice="16.28999089631971 0.0 0.0 0.0 16.28999089631971 0.0 0.0 0.0 34.281931910070035" Properties=species:S:1:pos:R:3:initial_magmoms:R:1 pbc="T T T"
Si       0.55597770      -1.76709033       1.40737694       0.00000000
Si       0.85489920       2.08174797       0.74268419       0.00000000
Si       1.21196527      -0.55747638      -1.99328976       0.00000000
Si      -2.48890023       0.17739810      -0.58615280       0.00000000
Si      -0.77445918       3.44182029      -0.44535683       0.00000000
Si      -2.77902513       2.39787075       0.15776554       0.00000000
Si       0.16602768      -0.92292624       3.56330028       0.00000000
Si       0.56868390       2.38341663       3.05630450       0.00000000
Si      -3.55136661      -1.19008224       1.19928549       0.00000000
Si       2.60910644      -2.81869128       1.02828712       0.00000000
