10
Lattice="16.28999089631971 0.0 0.0 0.0 16.28999089631971 0.0 0.0 0.0 34.281931910070035" Properties=species:S:1:pos:R:3:initial_magmoms:R:1 pbc="T T T"
Si       2.09805330       1.00939356      -0.31193147       0.00000000
Si      -2.13462531       0.72746253      -0.76321908       0.00000000
Si       0.56821149      -2.35465434      -0.17398090       0.00000000
Si      -0.11544723       0.97795386       2.24485072       0.00000000
Si      -0.27851013       0.01795158      -3.13522155       0.00000000
Si       1.71769905       3.31990919      -0.07483750       0.00000000
Si      -1.45648890      -0.55257309       3.42247002       0.00000000
Si       3.42886811       0.41376600       1.62513589       0.00000000
Si      -2.03833512       2.96156177      -1.53901963       0.00000000
Si      -0.31027563      -3.34370169      -2.12095575       0.00000000
