10
Lattice="16.28999089631971 0.0 0.0 0.0 16.28999089631971 0.0 0.0 0.0 34.281931910070035" Properties=species:S:1:pos:R:3:initial_magmoms:R:1 pbc="T T T"
Si      -2.20892400      -0.34305111      -0.67837125       0.00000000
Si      -0.16907391      -2.14808085       0.99019987       0.00000000
Si       1.92322088       0.64914021      -1.27703696       0.00000000
Si      -0.48379671       1.57900599       1.74508844       0.00000000
Si      -3.13543404       1.76112819      -0.63003370       0.00000000
Si      -1.04870133      -1.62096903       3.23285655       0.00000000
Si      -2.25922752      -1.38346083      -2.71063959       0.00000000
Si       3.72678452       0.68356098       0.31940494       0.00000000
Si       1.80598826      -3.33308061       0.79249586       0.00000000
Si       2.60199260      -0.95956245      -2.79918987       0.00000000
