10
Lattice="16.28999089631971 0.0 0.0 0.0 16.28999089631971 0.0 0.0 0.0 34.281931910070035" Properties=species:S:1:pos:R:3:initial_magmoms:R:1 pbc="T T T"
Si       0.92651004      -2.10417930      -0.04833755       0.00000000
Si       0.36851238       0.56617524       2.22644131       0.00000000
Si      -2.18468448       0.09861966      -0.80552300       0.00000000
Si       1.34104167       1.53052695      -1.17761930       0.00000000
Si       0.30561669       2.88105333       2.00220307       0.00000000
Si       2.65163733      -0.18212220       2.37512213       0.00000000
Si       0.24553917       3.55026608      -0.38814025       0.00000000
Si       3.13543404      -1.76112819       0.63003370       0.00000000
Si      -2.74501161      -2.10644361      -1.32890555       0.00000000
Si      -2.29524471       1.68360768      -2.45170801       0.00000000
