10
Lattice="16.28999089631971 0.0 0.0 0.0 16.28999089631971 0.0 0.0 0.0 34.281931910070035" Properties=species:S:1:pos:R:3:initial_magmoms:R:1 pbc="T T T"
Si       0.48379671      -1.57900599      -1.74508844       0.00000000
Si      -2.28312495       0.74829744      -0.14868082       0.00000000
Si       1.02618922       2.15104304      -0.40418420       0.00000000
Si       0.51953697       2.02472387       2.84406494       0.00000000
Si      -1.72512729      -1.92205710      -2.42345968       0.00000000
Si      -1.92204081      -1.12531320       2.75548038       0.00000000
Si      -2.65163733       0.18212220      -2.37512213       0.00000000
Si      -0.56490462      -3.19997502       1.48776811       0.00000000
Si      -0.31713372       3.44760650       1.06568873       0.00000000
Si       0.81282068       2.41077243      -2.74937819       0.00000000
