10
Lattice="16.28999089631971 0.0 0.0 0.0 16.28999089631971 0.0 0.0 0.0 34.281931910070035" Properties=species:S:1:pos:R:3:initial_magmoms:R:1 pbc="T T T"
Si       0.27973188       2.25868995      -0.45286457       0.00000000
Si       0.81899604      -1.17968922      -1.82983342       0.00000000
Si       1.29639078      -0.97355556       1.68032983       0.00000000
Si      -2.18056311      -0.69633234       0.50668724       0.00000000
Si       0.17379801      -3.24992016      -0.85821436       0.00000000
Si      -1.79729199      -3.02161581       0.45540144       0.00000000
Si       3.42428832      -0.17529669       1.23583005       0.00000000
Si      -1.87584237       3.11903001      -0.32098191       0.00000000
Si      -3.40640516      -0.36535212      -1.46881019       0.00000000
Si       1.65962520       3.27758058       1.20655327       0.00000000
