10
Lattice="16.28999089631971 0.0 0.0 0.0 16.28999089631971 0.0 0.0 0.0 34.281931910070035" Properties=species:S:1:pos:R:3:initial_magmoms:R:1 pbc="T T T"
Si      -1.35748805      -1.35698958       1.35698247       0.00000000
Si       1.35812988       1.35777150       1.35718816       0.00000000
Si       1.35799956      -1.35638848      -1.36171338       0.00000000
Si      -1.35906493       1.35770634      -1.36414740       0.00000000
Si       2.71450044       2.71471221      -0.00109702       0.00000000
Si      -2.71493077      -2.71446289      -0.00010285       0.00000000
Si      -2.71498486       0.00060273       2.71502768       0.00000000
Si       2.71547784       0.00027693       2.71475342       0.00000000
Si       0.00078192      -2.71518261       2.71506196       0.00000000
Si       0.00022806       2.71581993       2.71471914       0.00000000
