10
Lattice="16.28999089631971 0.0 0.0 0.0 16.28999089631971 0.0 0.0 0.0 34.281931910070035" Properties=species:S:1:pos:R:3:initial_magmoms:R:1 pbc="T T T"
Si      -1.34452773      -1.34314308       1.36425024       0.00000000
Si      -1.35452327       1.35886293      -1.35838803       0.00000000
Si       1.36024758      -1.35635427      -1.35989643       0.00000000
Si       1.36039419       1.36660068       1.38097983       0.00000000
Si      -2.71391133       2.71192662       0.00246830       0.00000000
Si      -2.71342650      -0.00017919      -2.71533622       0.00000000
Si      -2.71553390      -2.71406061       0.00137128       0.00000000
Si       0.00115659       2.71459818      -2.71526765       0.00000000
Si       0.00107514      -2.71467963      -2.71533622       0.00000000
Si       2.71627605      -2.71397916       0.00085705       0.00000000
