10
Lattice="16.28999089631971 0.0 0.0 0.0 16.28999089631971 0.0 0.0 0.0 34.281931910070035" Properties=species:S:1:pos:R:3:initial_magmoms:R:1 pbc="T T T"
Si       2.15557425      -0.86034006      -0.13188267       0.00000000
Si      -1.58093310      -1.13124276      -1.39458977       0.00000000
Si       0.37550079       2.03359473      -1.21865480       0.00000000
Si      -0.42050354      -0.33992343       2.37303093       0.00000000
Si      -2.39556572       0.84507633       2.57073495       0.00000000
Si       1.87584237      -3.11903001       0.32098191       0.00000000
Si      -0.30327093       3.64229739       0.30349811       0.00000000
Si       2.83393872      -0.36745353      -2.33912609       0.00000000
Si       3.53546757       0.15855057       1.52753518       0.00000000
Si      -1.54874406      -0.13367574      -3.53014963       0.00000000
