10
Lattice="16.28999089631971 0.0 0.0 0.0 16.28999089631971 0.0 0.0 0.0 34.281931910070035" Properties=species:S:1:pos:R:3:initial_magmoms:R:1 pbc="T T T"
Si      -1.35324777       1.35837423      -1.36387314       0.00000000
Si       1.36107837      -1.35763629      -1.36260471       0.00000000
Si      -1.37133292      -1.34023857       1.37199796       0.00000000
Si       1.37007045       1.36137159       1.38385952       0.00000000
Si       0.09853821      -2.59679248       2.64982341       0.00000000
Si      -2.71373595      -2.71346507       0.00017141       0.00000000
Si      -2.71423070       2.71583622      -0.00373673       0.00000000
Si       2.71572219      -2.71439380      -0.00531370       0.00000000
Si      -2.71283458       0.00000000      -2.72013569       0.00000000
Si       2.71757925       2.71591767      -0.00425096       0.00000000
