10
Lattice="16.28999089631971 0.0 0.0 0.0 16.28999089631971 0.0 0.0 0.0 34.281931910070035" Properties=species:S:1:pos:R:3:initial_magmoms:R:1 pbc="T T T"
Si       1.35877496       1.35606105      -1.35636539       0.00000000
Si      -1.35734537      -1.35764118      -1.35622827       0.00000000
Si       1.35763466      -1.35716877       1.35735957       0.00000000
Si      -1.35726136       1.35765747       1.35759954       0.00000000
Si      -0.00330687      -2.71547784      -2.71139379       0.00000000
Si       0.00195480      -2.71290402       2.71423919       0.00000000
Si       2.71452650      -2.71443528      -0.00034282       0.00000000
Si      -2.71422092      -2.71484253       0.00010285       0.00000000
Si      -2.71397657       0.00114030       2.71547334       0.00000000
Si      -2.71475849       2.71541268      -0.00023997       0.00000000
