10
Lattice="16.28999089631971 0.0 0.0 0.0 16.28999089631971 0.0 0.0 0.0 34.281931910070035" Properties=species:S:1:pos:R:3:initial_magmoms:R:1 pbc="T T T"
Si      -1.43436708       0.85007736       1.69339125       0.00000000
Si       1.55292570       1.30723992      -1.28413332       0.00000000
Si       1.91743074       0.07947891       1.47720927       0.00000000
Si      -1.24058124      -1.66035825      -1.27347164       0.00000000
Si       0.10516824       2.35278099      -2.76089693       0.00000000
Si      -0.57062241      -0.11930796       3.63868629       0.00000000
Si      -2.59299496      -0.37020654      -2.74690989       0.00000000
Si      -1.20078477       3.15340191       1.75530446       0.00000000
Si       2.80968291      -0.34459866      -2.70885693       0.00000000
Si      -3.03304487      -2.62365111       0.05029162       0.00000000
