10
Lattice="16.28999089631971 0.0 0.0 0.0 16.28999089631971 0.0 0.0 0.0 34.281931910070035" Properties=species:S:1:pos:R:3:initial_magmoms:R:1 pbc="T T T"
Si       1.77676333       0.88020117      -1.45859417       0.00000000
Si       1.73916601       0.20787669       1.74769387       0.00000000
Si      -0.89028255      -1.90076607      -1.37919717       0.00000000
Si      -0.86906010      -1.95872589       1.37138089       0.00000000
Si       1.50558370      -2.09544786       1.68578066       0.00000000
Si       0.30689220       2.13675508      -2.73641962       0.00000000
Si      -2.39384223      -0.58948623      -2.71098241       0.00000000
Si       2.78089522       2.46212666      -0.00298253       0.00000000
Si      -1.10965266       3.49556426      -1.17892202       0.00000000
Si      -3.74910507       0.80910575      -1.04813637       0.00000000
