10
Lattice="16.28999089631971 0.0 0.0 0.0 16.28999089631971 0.0 0.0 0.0 34.281931910070035" Properties=species:S:1:pos:R:3:initial_magmoms:R:1 pbc="T T T"
Si      -0.52836778      -0.75142512       2.18766843       0.00000000
Si       1.29183772       1.98522972      -0.19328164       0.00000000
Si       0.94621280      -1.91795202      -1.14837680       0.00000000
Si      -2.29776870       0.38726217      -0.77364079       0.00000000
Si      -1.90781868      -0.45690192      -2.92956413       0.00000000
Si      -0.94506109      -3.03583698       1.69191713       0.00000000
Si       0.14531006      -1.50850287      -3.30865394       0.00000000
Si      -0.19178869       3.64336831       0.30240109       0.00000000
Si      -2.73354249       0.05004288       2.57611721       0.00000000
Si      -3.61202961      -0.93900447       0.62914237       0.00000000
