10
Lattice="16.2900001489832 0.0 0.0 0.0 16.2900001489832 0.0 0.0 0.0 29.41385946727247" Properties=species:S:1:pos:R:3:initial_magmoms:R:1 pbc="T T T"
H       -1.28341092      -0.69203179       0.44564938       0.00000000
Si       1.11844046      -1.70505803      -1.16078855       0.00000000
Si      -0.84170105       1.75324059      -1.36036159       0.00000000
Si       0.80876756       0.24568578       2.24615996       0.00000000
H       -0.48578898       2.41926050       1.88892864       0.00000000
H       -0.25348218       3.06594093       1.49451820       0.00000000
Si      -3.08403749       1.02356424      -1.21632192       0.00000000
H        1.96542273       2.79700932      -0.74164105       0.00000000
Si       2.99592814      -1.97835536       0.23551677       0.00000000
Si       2.22596499      -1.63189963       2.44393876       0.00000000
