10
Lattice="16.2900001489832 0.0 0.0 0.0 16.2900001489832 0.0 0.0 0.0 29.41385946727247" Properties=species:S:1:pos:R:3:initial_magmoms:R:1 pbc="T T T"
Si       1.41719743      -1.87758542       0.19777879       0.00000000
Si      -1.90727720      -0.59230441       1.29359213       0.00000000
Si       1.54592101       1.61267906       0.83597130       0.00000000
Si      -0.80876756      -0.24568578      -2.24615996       0.00000000
H       -1.29455654       2.17357472      -0.35723132       0.00000000
H       -2.09217848      -0.93771757      -1.80051058       0.00000000
H        2.08249733       0.77489087       1.98364127       0.00000000
H       -1.06224973       2.82025515      -0.75164176       0.00000000
Si      -1.18261329      -0.17818002       3.50280828       0.00000000
Si       2.18716058      -2.22404114      -2.01064319       0.00000000
