10
Lattice="16.2900001489832 0.0 0.0 0.0 16.2900001489832 0.0 0.0 0.0 29.41385946727247" Properties=species:S:1:pos:R:3:initial_magmoms:R:1 pbc="T T T"
Si      -1.31947372       1.38810349      -1.34500755       0.00000000
Si       1.26846973       1.36208836       1.42216011       0.00000000
Si       1.39215970      -1.28544391      -1.44372046       0.00000000
Si      -1.38390067      -1.28486236       1.45728025       0.00000000
Si       2.65087172      -2.66971274       0.01285386       0.00000000
Si      -2.64627794      -0.01049076      -2.69362124       0.00000000
Si      -0.07309323      -2.72464425      -2.64383240       0.00000000
Si       2.69791724       0.02342502       2.72787074       0.00000000
Si      -2.60644889       2.83457406      -0.00011766       0.00000000
Si       2.70861977       2.74851399       0.05270964       0.00000000
