10
Lattice="16.2900001489832 0.0 0.0 0.0 16.2900001489832 0.0 0.0 0.0 29.41385946727247" Properties=species:S:1:pos:R:3:initial_magmoms:R:1 pbc="T T T"
Si      -1.23789340       1.29192733      -1.47119301       0.00000000
Si       0.83564443       1.62261433       1.51307834       0.00000000
Si      -1.79191631      -1.00334998       1.20655652       0.00000000
Si       1.43092990      -1.45440868      -1.23017584       0.00000000
Si       0.69603913      -0.07646526       3.29038139       0.00000000
Si      -2.49720815       2.59198337       0.00997130       0.00000000
Si      -3.35026659       0.84380572       1.35121388       0.00000000
Si      -2.62107731      -0.17658360      -2.67021958       0.00000000
Si       2.81514009       2.47174688       0.33858294       0.00000000
Si       0.20838168       2.66502773      -2.68757375       0.00000000
