10
Lattice="16.2900001489832 0.0 0.0 0.0 16.2900001489832 0.0 0.0 0.0 29.41385946727247" Properties=species:S:1:pos:R:3:initial_magmoms:R:1 pbc="T T T"
Si      -0.68108491      -0.72325972      -2.09282551       0.00000000
Si      -0.65199097       2.20765340      -0.31184574       0.00000000
Si       2.30161412      -0.21885615       0.51550730       0.00000000
Si      -1.00486495      -1.29779173       1.84492551       0.00000000
Si       0.26937144      -3.12451977       0.62733879       0.00000000
Si       0.85335166       3.07033923       1.29912193       0.00000000
Si       2.20806065       1.28347282       2.33719586       0.00000000
Si       2.54638766      -2.53065152       0.92403640       0.00000000
Si      -3.03389850       2.20268495      -0.17413005       0.00000000
Si      -1.84974581       0.73963117       3.21184638       0.00000000
