10
Lattice="16.2900001489832 0.0 0.0 0.0 16.2900001489832 0.0 0.0 0.0 29.41385946727247" Properties=species:S:1:pos:R:3:initial_magmoms:R:1 pbc="T T T"
Si      -2.31860459      -0.66026629       0.19410206       0.00000000
Si       0.71030917      -0.06965604       2.31978285       0.00000000
Si       1.00486495       1.29779173      -1.84492551       0.00000000
Si       1.27423639      -1.82672804      -1.21758671       0.00000000
Si      -0.84488086       2.03742290       1.36692088       0.00000000
H        0.19671804       3.11023344       1.72624058       0.00000000
Si      -1.32478426       0.72694126       3.38553522       0.00000000
Si       3.30647907       1.07893558      -1.32941821       0.00000000
Si      -2.52012818      -1.10696578       2.51370843       0.00000000
Si       2.35698383       1.55398456       2.43996788       0.00000000
