10
Lattice="16.2900001489832 0.0 0.0 0.0 16.2900001489832 0.0 0.0 0.0 29.41385946727247" Properties=species:S:1:pos:R:3:initial_magmoms:R:1 pbc="T T T"
Si      -1.04159890      -1.07281054      -0.35931971       0.00000000
H       -0.94266973       1.68006917       1.93852041       0.00000000
Si       2.16026579      -1.55624887       0.71372730       0.00000000
Si       0.88736518       2.71635752      -0.57727641       0.00000000
Si       1.75185920       0.06696819       2.36031515       0.00000000
Si       1.66149857       1.25789752      -2.27204416       0.00000000
Si      -0.35541522       0.78358159       3.02065630       0.00000000
Si      -2.82870966      -0.12310353      -1.49110619       0.00000000
Si       2.31666608       1.97128550       1.16005320       0.00000000
Si       0.51359112      -3.17988948       0.59354227       0.00000000
