10
Lattice="16.2900001489832 0.0 0.0 0.0 16.2900001489832 0.0 0.0 0.0 29.41385946727247" Properties=species:S:1:pos:R:3:initial_magmoms:R:1 pbc="T T T"
Si       0.58725451      -0.89648758       1.08213589       0.00000000
Si      -0.49036158       1.37728693      -2.05217556       0.00000000
H        0.94266973      -1.68006917      -1.93852041       0.00000000
Si      -0.32487147       2.88956910      -0.12724436       0.00000000
Si      -2.73175157      -0.96132178       0.46397422       0.00000000
Si      -2.34246944      -0.12035052      -1.81086426       0.00000000
Si      -1.13142196      -2.38210301       1.42883705       0.00000000
Si       0.81912637       0.42661881       2.98335952       0.00000000
Si       2.69452892      -1.61310097       0.42179474       0.00000000
Si       1.83003491       1.03628836      -2.51579681       0.00000000
