10
Lattice="16.2900001489832 0.0 0.0 0.0 16.2900001489832 0.0 0.0 0.0 29.41385946727247" Properties=species:S:1:pos:R:3:initial_magmoms:R:1 pbc="T T T"
Si      -0.23187186      -1.32310639      -1.90122363       0.00000000
Si      -1.65451016      -0.57964708       1.57320027       0.00000000
Si       1.79020586      -1.14745132       1.04783933       0.00000000
Si       0.03590316       2.21415311      -0.94789104       0.00000000
H       -0.81912637      -0.42661881      -2.98335952       0.00000000
Si       2.52690482       0.40731516       2.59950866       0.00000000
Si       2.35059815       2.70060509      -0.85611979       0.00000000
Si      -3.44430876       0.83544895       1.11252041       0.00000000
Si      -2.43432875      -2.68315850       0.83285343       0.00000000
Si      -1.95054833      -2.80872183      -1.55452247       0.00000000
