10
Lattice="16.2900001489832 0.0 0.0 0.0 16.2900001489832 0.0 0.0 0.0 29.41385946727247" Properties=species:S:1:pos:R:3:initial_magmoms:R:1 pbc="T T T"
Si       1.27759213      -1.38745189       1.44186739       0.00000000
Si      -1.30538287      -1.38453598      -1.43760238       0.00000000
Si       1.38424276       1.29098251      -1.46210413       0.00000000
Si      -1.30657204       1.35557236       1.50819564       0.00000000
Si       2.67537188       0.04675230       2.68154391       0.00000000
Si      -2.58857876      -2.77570200      -0.00379439       0.00000000
Si      -2.70446582       2.68900661       0.07797614       0.00000000
Si       2.67695201       2.72885195      -0.06418104       0.00000000
Si      -0.02990844       2.68226255      -2.75131359       0.00000000
Si       2.66708027      -2.77843872       0.00785350       0.00000000
