10
Lattice="16.2900001489832 0.0 0.0 0.0 16.2900001489832 0.0 0.0 0.0 29.41385946727247" Properties=species:S:1:pos:R:3:initial_magmoms:R:1 pbc="T T T"
Si       1.39777975       1.43420419       1.23967652       0.00000000
Si      -1.27759213       1.38745189      -1.44186739       0.00000000
Si      -1.14481234      -1.29886687       1.68282573       0.00000000
Si       1.38948814      -1.39098682      -1.43401389       0.00000000
Si      -2.37260594      -2.68594409      -0.02570771       0.00000000
Si       2.39000366      -0.12445560       2.67701418       0.00000000
Si      -2.58416417       2.74302426       0.06632825       0.00000000
Si      -2.58297500       0.00291591      -2.87946977       0.00000000
Si       2.79578757       2.67757103      -0.21998625       0.00000000
Si       0.46100700      -1.23491233       3.68026210       0.00000000
