10
Lattice="16.2900001489832 0.0 0.0 0.0 16.2900001489832 0.0 0.0 0.0 29.41385946727247" Properties=species:S:1:pos:R:3:initial_magmoms:R:1 pbc="T T T"
H        0.57653080      -1.26897472      -0.58857133       0.00000000
Si       0.89462563       1.66721636      -1.37580386       0.00000000
Si      -2.12718569       0.90570772      -0.41149989       0.00000000
Si       0.63312226       0.11541465       2.26283762       0.00000000
H       -1.00870776      -1.98707051       0.84926636       0.00000000
Si      -1.15539335       2.95029822      -1.38862831       0.00000000
H       -0.53626029       2.72966646       2.22736451       0.00000000
Si       2.55443004       2.50701473       0.32869988       0.00000000
H       -0.08294379       3.16052067       1.75200713       0.00000000
Si       0.86093791       0.50134104      -3.52916310       0.00000000
