10
Lattice="16.2900001489832 0.0 0.0 0.0 16.2900001489832 0.0 0.0 0.0 29.41385946727247" Properties=species:S:1:pos:R:3:initial_magmoms:R:1 pbc="T T T"
Si       2.12880980      -0.26259480       1.03275002       0.00000000
Si      -1.68412538       1.10122030       1.30550474       0.00000000
Si      -0.77105458      -2.26004204       0.30813959       0.00000000
Si      -0.04869081       0.68927878      -2.35169689       0.00000000
Si       3.00690597      -1.59915673      -0.80064525       0.00000000
Si      -2.40627737       0.66828097      -2.57053601       0.00000000
Si      -3.15128424       1.86658967      -0.43153073       0.00000000
Si       0.65824633      -3.00511407       2.04546920       0.00000000
Si      -3.09145107      -1.91904347       0.77176084       0.00000000
Si      -0.52074243       2.72766279       2.57662468       0.00000000
