10
Lattice="16.2900001489832 0.0 0.0 0.0 16.2900001489832 0.0 0.0 0.0 29.41385946727247" Properties=species:S:1:pos:R:3:initial_magmoms:R:1 pbc="T T T"
Si       1.33817464       1.33640392      -1.40771496       0.00000000
Si      -1.34500015       1.35328199       1.39736422       0.00000000
Si       1.41415120      -1.39128004       1.28920946       0.00000000
Si      -1.32722776      -1.33530760      -1.44672950       0.00000000
Si      -2.62528013       2.68925911      -0.07391703       0.00000000
Si      -2.65657322      -2.69493617      -0.04732690       0.00000000
Si       2.70686045       0.04658940       2.68713255       0.00000000
Si       0.02990844      -2.68226255       2.75131359       0.00000000
Si       0.02736720       2.77618581       2.69339770       0.00000000
Si       2.73250091      -2.74895382      -0.21507414       0.00000000
