10
Lattice="16.2900001489832 0.0 0.0 0.0 16.2900001489832 0.0 0.0 0.0 29.41385946727247" Properties=species:S:1:pos:R:3:initial_magmoms:R:1 pbc="T T T"
H       -1.31940302       0.62292961      -0.47715163       0.00000000
Si      -0.43034108       0.32451309       2.27704452       0.00000000
Si       1.58281461       1.28506924      -1.22411659       0.00000000
Si      -0.46376816      -2.24865533      -0.64945802       0.00000000
Si      -2.67170989      -1.81074755      -1.10372566       0.00000000
Si      -2.75856817      -0.01316232       2.30257575       0.00000000
Si       0.10149973       2.44600868      -2.66068949       0.00000000
Si      -3.70389317      -0.07504803       0.14098063       0.00000000
H        1.15367084      -2.37040679       2.69413304       0.00000000
Si       2.85353236      -0.23654709      -2.54465181       0.00000000
