10
Lattice="16.2900001489832 0.0 0.0 0.0 16.2900001489832 0.0 0.0 0.0 29.41385946727247" Properties=species:S:1:pos:R:3:initial_magmoms:R:1 pbc="T T T"
Si       1.30844539      -1.30796809      -1.41283003       0.00000000
Si      -1.18644958       1.37634374      -1.47782583       0.00000000
Si      -1.36612340      -1.35185336       1.35403467       0.00000000
Si       1.42193782       1.35954386       1.29970727       0.00000000
Si       2.39575403       0.32483726      -2.73992778       0.00000000
Si       0.60639526       2.08533668      -2.98103877       0.00000000
Si      -0.26489169      -2.44727442      -2.79324422       0.00000000
Si      -2.54090282       2.78761487      -0.12052917       0.00000000
Si       0.02257794       2.72429564       2.62697826       0.00000000
Si       2.71999019      -2.66502285      -0.07310521       0.00000000
