10
Lattice="16.2900001489832 0.0 0.0 0.0 16.2900001489832 0.0 0.0 0.0 29.41385946727247" Properties=species:S:1:pos:R:3:initial_magmoms:R:1 pbc="T T T"
H       -0.44874063      -1.03829203       1.06601709       0.00000000
Si       1.98925337       1.00921438       0.68131323       0.00000000
Si       0.68662351      -1.20682837      -1.94493263       0.00000000
Si      -1.86235427       1.49698585      -0.08462367       0.00000000
H        0.06802704       3.07721035       0.14259839       0.00000000
H        0.43344432       2.96221272       0.83747141       0.00000000
Si      -3.36707787      -0.24089652       0.19351378       0.00000000
H       -1.86882140       0.21369222      -2.91117791       0.00000000
Si       1.37288863       1.81990253       2.79622855       0.00000000
Si       3.21918096      -0.88171255       1.41360067       0.00000000
