10
Lattice="16.2900001489832 0.0 0.0 0.0 16.2900001489832 0.0 0.0 0.0 29.41385946727247" Properties=species:S:1:pos:R:3:initial_magmoms:R:1 pbc="T T T"
Si      -1.50472360      -1.73788238       0.27813746       0.00000000
Si       1.86235427      -1.49698585       0.08462367       0.00000000
Si      -0.43968339       1.00233231      -2.13044584       0.00000000
H        1.93038131       1.58022450       0.22722206       0.00000000
Si      -0.18021627       1.82582557       1.75821345       0.00000000
H        2.29579859       1.46522687       0.92209508       0.00000000
H       -0.00646713      -1.28329363      -2.82655424       0.00000000
H        1.41361363      -2.53527788       1.15064077       0.00000000
Si      -2.27468675      -1.39142665       2.48655944       0.00000000
Si      -1.17854893       3.16055325      -1.40062916       0.00000000
