10
Lattice="16.2900001489832 0.0 0.0 0.0 16.2900001489832 0.0 0.0 0.0 29.41385946727247" Properties=species:S:1:pos:R:3:initial_magmoms:R:1 pbc="T T T"
Si      -1.12151764      -1.69836284      -1.19882067       0.00000000
Si       0.88506829       1.22317539      -1.87148622       0.00000000
Si      -1.26540721       1.32023284       1.59473681       0.00000000
Si       1.57452625      -1.43734816       1.34491931       0.00000000
H       -1.99519922       1.06752443      -1.26358999       0.00000000
Si       0.49182768       2.35399950       2.81868603       0.00000000
Si       0.36426069      -3.56335608      -1.08275358       0.00000000
Si      -2.35271585      -0.31257252       2.92183455       0.00000000
Si      -2.49484610      -2.83478583       0.31437533       0.00000000
Si       2.13322439       3.08394138      -1.01045431       0.00000000
