10
Lattice="16.2900001489832 0.0 0.0 0.0 16.2900001489832 0.0 0.0 0.0 29.41385946727247" Properties=species:S:1:pos:R:3:initial_magmoms:R:1 pbc="T T T"
Si      -2.17277814      -0.45273168       0.77337861       0.00000000
Si       1.19534392       1.83390704       0.87182679       0.00000000
Si       1.13668363      -2.03478881       0.39146906       0.00000000
Si       0.20152359       0.44669950      -2.31960637       0.00000000
H       -1.63121545       1.97527166       1.32785927       0.00000000
Si       3.23043735       1.03730974      -0.19392558       0.00000000
Si      -2.30071654      -2.65812566      -0.11209622       0.00000000
Si       2.33987933      -1.32950465       2.37369846       0.00000000
Si       1.60101379       0.82871629       3.10351514       0.00000000
Si       0.11631060      -1.73344009      -3.21590550       0.00000000
