10
Lattice="16.2900001489832 0.0 0.0 0.0 16.2900001489832 0.0 0.0 0.0 29.41385946727247" Properties=species:S:1:pos:R:3:initial_magmoms:R:1 pbc="T T T"
Si       0.91323370      -1.12818025      -0.47212186       0.00000000
Si      -1.23688342      -2.17134299      -0.12412649       0.00000000
Si      -0.09076788       1.55383795      -2.09550218       0.00000000
Si       0.38981970       2.06557202       1.77695008       0.00000000
Si      -1.00302418       2.55829565      -0.20274973       0.00000000
Si       0.53825418      -0.16633719       2.69936871       0.00000000
Si       2.01163583       0.68165506      -1.76324322       0.00000000
Si       1.83659978      -1.79701964       1.55105164       0.00000000
Si      -2.69830820      -0.67727305       1.13828695       0.00000000
Si      -2.94308175       1.63452232       0.72975785       0.00000000
