10
Lattice="16.2900001489832 0.0 0.0 0.0 16.2900001489832 0.0 0.0 0.0 29.41385946727247" Properties=species:S:1:pos:R:3:initial_magmoms:R:1 pbc="T T T"
Si      -1.41983641      -1.23628721       1.38118660       0.00000000
Si      -0.26793792      -0.39473928      -2.31175287       0.00000000
Si      -0.96915727       2.17236926       0.34352446       0.00000000
Si       2.32003811      -0.38126745       0.49935909       0.00000000
H       -2.69392619       0.16677702      -1.51896112       0.00000000
H       -0.96182677       0.84119932      -2.86382160       0.00000000
Si       2.94586734       0.85346569      -1.44048494       0.00000000
H       -0.16451271       1.30401451       3.16007799       0.00000000
Si       1.81270235      -0.08169435      -3.22375900       0.00000000
Si      -0.23244201       2.71279001       2.55350538       0.00000000
