10
Lattice="16.2900001489832 0.0 0.0 0.0 16.2900001489832 0.0 0.0 0.0 29.41385946727247" Properties=species:S:1:pos:R:3:initial_magmoms:R:1 pbc="T T T"
Si       0.07960923       1.95988250      -1.31877039       0.00000000
Si       1.91339084      -1.09301666      -0.85970828       0.00000000
Si      -1.24815610      -1.86076599      -0.86103191       0.00000000
Si       0.19572435       0.09637164       2.44252689       0.00000000
H       -0.06520887       3.03596733      -0.24990015       0.00000000
Si       0.71620615      -2.95454991      -1.64470537       0.00000000
H       -1.91961362       2.03436038       2.15227092       0.00000000
H        3.16871454       1.44728506       0.91918311       0.00000000
Si       1.97286563      -1.55565429       2.77437111       0.00000000
Si       2.77216707      -2.44833815       0.79167403       0.00000000
