10
Lattice="16.2900001489832 0.0 0.0 0.0 16.2900001489832 0.0 0.0 0.0 29.41385946727247" Properties=species:S:1:pos:R:3:initial_magmoms:R:1 pbc="T T T"
Si       1.71473429       0.97999012       1.35328755       0.00000000
Si      -0.92610280      -1.77642452       1.32557970       0.00000000
Si       1.09905373      -0.90881911      -2.03087993       0.00000000
Si      -1.84295288       1.67337398       0.10190523       0.00000000
H        1.16698303      -2.31759461      -1.42430732       0.00000000
H       -2.47277315       1.82408906      -1.32371192       0.00000000
H       -2.06694038      -0.72891235      -2.59339058       0.00000000
Si      -2.32880213      -0.47961018       2.78442183       0.00000000
Si       0.40172769       2.33820146       2.79332540       0.00000000
Si       3.05589000       2.36288081      -0.05450388       0.00000000
