10
Lattice="16.2900001489832 0.0 0.0 0.0 16.2900001489832 0.0 0.0 0.0 29.41385946727247" Properties=species:S:1:pos:R:3:initial_magmoms:R:1 pbc="T T T"
Si       1.33299442       1.32063031      -1.42183655       0.00000000
Si      -1.45015210       1.17027361       1.46613383       0.00000000
Si       1.36021501      -1.31017213       1.45080920       0.00000000
Si      -1.40647861      -1.40123323      -1.33112421       0.00000000
Si      -0.53276445      -2.27688590       2.51112001       0.00000000
Si      -2.21169332      -0.60931117       2.91176619       0.00000000
Si       2.65426004       2.65453697       0.06315156       0.00000000
Si       2.65036673      -0.11653866      -2.78387473       0.00000000
Si       0.01391166      -2.70397712      -2.74031280       0.00000000
Si      -2.82937755       2.61850349       0.13921580       0.00000000
