10
Lattice="16.2900001489832 0.0 0.0 0.0 16.2900001489832 0.0 0.0 0.0 29.41385946727247" Properties=species:S:1:pos:R:3:initial_magmoms:R:1 pbc="T T T"
Si       1.16142814       1.52821378       1.33027121       0.00000000
Si       1.45015210      -1.17027361      -1.46613383       0.00000000
Si      -1.37922544       1.44822988      -1.32691803       0.00000000
Si      -0.76154122      -1.77958478       1.44563237       0.00000000
Si       0.91738765      -3.44715951       1.04498619       0.00000000
Si       2.81036712      -2.48044574      -0.01532462       0.00000000
Si      -2.66463677      -2.67872762       0.17607136       0.00000000
Si       0.04367349      -2.57150684      -2.79725804       0.00000000
Si       2.53922006       2.83439487      -0.16257040       0.00000000
Si      -2.61034220       0.10668321      -2.84529087       0.00000000
