10
Lattice="16.2900001489832 0.0 0.0 0.0 16.2900001489832 0.0 0.0 0.0 29.41385946727247" Properties=species:S:1:pos:R:3:initial_magmoms:R:1 pbc="T T T"
H        1.11825964      -0.47599380      -0.91027071       0.00000000
Si       1.12405888       1.66889423       1.15337626       0.00000000
Si      -0.56480689      -1.90431731       1.20026195       0.00000000
Si      -1.42930090       0.74507203      -1.73732961       0.00000000
H       -2.31666608      -1.97128550      -1.16005320       0.00000000
Si       1.47056347       2.74251927      -1.01271918       0.00000000
H       -3.25933581      -0.29121633       0.77846720       0.00000000
Si      -2.67208130      -1.18770391       1.86060309       0.00000000
Si       0.69954148      -2.50025438      -2.39402344       0.00000000
Si      -0.15640029      -3.52753437      -0.44632590       0.00000000
