10
Lattice="16.2900001489832 0.0 0.0 0.0 16.2900001489832 0.0 0.0 0.0 29.41385946727247" Properties=species:S:1:pos:R:3:initial_magmoms:R:1 pbc="T T T"
Si      -2.24233644      -0.72967635       0.14403967       0.00000000
Si       0.84170105      -1.75324059       1.36036159       0.00000000
Si      -0.13226991       2.25478363       0.88585721       0.00000000
Si       0.39001193      -0.11460830      -2.41302479       0.00000000
H        2.80712378       1.04376873       0.61872053       0.00000000
H       -0.44170987      -2.44527237       1.80601097       0.00000000
H        0.93157461       2.31339505      -1.85854412       0.00000000
H        0.58821887       1.31270034       2.85487979       0.00000000
H        0.35591207       0.66601991       3.24929023       0.00000000
Si      -3.28268101       1.34532921       0.37864461       0.00000000
