10
Lattice="16.2900001489832 0.0 0.0 0.0 16.2900001489832 0.0 0.0 0.0 29.41385946727247" Properties=species:S:1:pos:R:3:initial_magmoms:R:1 pbc="T T T"
Si      -2.23342418      -0.62693695       0.42988356       0.00000000
Si       0.28636191       2.27525690      -0.83047091       0.00000000
Si       0.79529410       0.11388339       2.38096368       0.00000000
Si       0.33977682      -1.49472154      -2.01684952       0.00000000
H       -0.22864644      -2.69635340       0.78726195       0.00000000
Si      -3.42994098      -0.34228548      -1.56487615       0.00000000
Si       2.39218652      -2.58172067      -1.68050203       0.00000000
Si       1.29288844       3.59393241       0.87306218       0.00000000
Si       1.10128546       2.44477064       2.92476712       0.00000000
Si       1.85101643       2.36208260      -2.64068806       0.00000000
