10
Lattice="16.2900001489832 0.0 0.0 0.0 16.2900001489832 0.0 0.0 0.0 29.41385946727247" Properties=species:S:1:pos:R:3:initial_magmoms:R:1 pbc="T T T"
Si       0.99222391      -1.55865979       1.43733766       0.00000000
Si      -1.39777975      -1.43420419      -1.23967652       0.00000000
Si       1.39800781       1.24336684      -1.45966278       0.00000000
Si      -0.93836917       1.63944190       1.45872153       0.00000000
Si       0.78602509       3.34632441       1.27056107       0.00000000
Si       2.53236197      -2.74520712      -0.01650118       0.00000000
Si      -0.93677275      -2.66911652       2.44058558       0.00000000
Si       2.65657322       2.63182871      -0.03894395       0.00000000
Si      -2.54259209      -2.73307106       0.44314921       0.00000000
Si      -2.67537188      -0.04675230      -2.68154391       0.00000000
