10
Lattice="16.2900001489832 0.0 0.0 0.0 16.2900001489832 0.0 0.0 0.0 29.41385946727247" Properties=species:S:1:pos:R:3:initial_magmoms:R:1 pbc="T T T"
Si      -1.12405888      -1.66889423      -1.15337626       0.00000000
Si       2.02743713      -0.95566915       0.78129094       0.00000000
Si      -1.21367017       1.16711335       1.75233068       0.00000000
Si       0.34650459       1.07362504      -2.16609544       0.00000000
H       -0.00579924      -2.14488803      -2.06364697       0.00000000
Si      -0.82903069       3.39697002       1.11787373       0.00000000
Si       2.00933894       2.66255165      -1.61582096       0.00000000
Si       3.59209164      -0.86884345      -1.02892622       0.00000000
Si      -1.78230521       1.33621984      -3.19884546       0.00000000
Si       3.03396366       0.36300636       2.48482402       0.00000000
