10
Lattice="16.2900001489832 0.0 0.0 0.0 16.2900001489832 0.0 0.0 0.0 29.41385946727247" Properties=species:S:1:pos:R:3:initial_magmoms:R:1 pbc="T T T"
H        0.53657631      -0.83778819       1.14766997       0.00000000
Si      -1.54592101      -1.61267906      -0.83597130       0.00000000
Si       1.96574690      -0.27301226      -1.36653850       0.00000000
Si      -0.72303166       1.86127750       1.42001289       0.00000000
H       -2.84047755       0.56089566      -1.19320262       0.00000000
H       -2.60817075       1.20757608      -1.58761306       0.00000000
H        0.17459622       2.71475948      -1.94037348       0.00000000
Si       3.41684382      -0.68213724       0.53977374       0.00000000
Si      -0.12872358      -3.49026448      -0.63819251       0.00000000
H       -0.38926584       0.93864447      -3.82377232       0.00000000
