10
Lattice="16.2900001489832 0.0 0.0 0.0 16.2900001489832 0.0 0.0 0.0 29.41385946727247" Properties=species:S:1:pos:R:3:initial_magmoms:R:1 pbc="T T T"
Si      -1.43213536      -1.35854203       1.31085806       0.00000000
Si      -1.37031481       1.37771047      -1.36468542       0.00000000
Si       1.30937392      -1.38538143      -1.43689645       0.00000000
Si       1.32328558       1.31597137       1.50943103       0.00000000
Si       2.63633567       2.67846698       0.06635767       0.00000000
Si       2.54641813      -2.77517909       0.02647247       0.00000000
Si      -2.79070509       2.68045436       0.04450317       0.00000000
Si      -2.64955223       0.04362462      -2.82186273       0.00000000
Si      -0.20494449      -2.71100463       2.77919793       0.00000000
Si      -0.13473459      -2.75426110      -2.74790452       0.00000000
