10
Lattice="16.2900001489832 0.0 0.0 0.0 16.2900001489832 0.0 0.0 0.0 29.41385946727247" Properties=species:S:1:pos:R:3:initial_magmoms:R:1 pbc="T T T"
Si      -2.10240371       0.87218290      -0.33225896       0.00000000
Si       0.94625353      -1.03553413      -1.89745866       0.00000000
Si       1.31815423       1.77310136       1.06316395       0.00000000
Si      -1.09840213      -1.80983531       1.29112136       0.00000000
H       -2.01163583      -0.68165506       1.76324322       0.00000000
H        1.97262128      -2.59059872       0.66322370       0.00000000
Si       1.73294651      -2.96065866      -0.77761420       0.00000000
H        2.43663216      -1.11967687       2.32393021       0.00000000
H       -0.50287230       3.50793750       0.56168706       0.00000000
Si       3.44533992       0.86739364       1.47466384       0.00000000
