10
Lattice="16.2900001489832 0.0 0.0 0.0 16.2900001489832 0.0 0.0 0.0 29.41385946727247" Properties=species:S:1:pos:R:3:initial_magmoms:R:1 pbc="T T T"
Si      -0.16645122      -2.22985667       0.66875351       0.00000000
Si      -1.46331442       0.82368757      -1.67023660       0.00000000
Si      -0.77027266       0.76424536       2.11868030       0.00000000
Si       2.09605061      -0.48330801      -1.15034663       0.00000000
H        0.92666806       2.13094379      -1.18581974       0.00000000
H        1.37998456       2.56179800      -1.66117713       0.00000000
H        1.89504830      -0.72387874       2.77613888       0.00000000
Si       1.09501544       0.39530943       3.44524536       0.00000000
Si       0.08192241      -3.40962735      -1.34739007       0.00000000
H        0.45422059      -2.58579317      -2.56391789       0.00000000
