10
Lattice="16.2900001489832 0.0 0.0 0.0 16.2900001489832 0.0 0.0 0.0 29.41385946727247" Properties=species:S:1:pos:R:3:initial_magmoms:R:1 pbc="T T T"
Si      -1.04034457       2.07500556       0.23460494       0.00000000
Si      -0.95710267      -0.85794381      -1.97587601       0.00000000
Si       2.24233644       0.72967635      -0.14403967       0.00000000
Si      -0.63952912      -1.37823012       1.83118924       0.00000000
H       -2.14762475      -1.09667376       1.73991803       0.00000000
H        1.80062657      -1.71559603       1.66197130       0.00000000
Si       3.08403749      -1.02356424       1.21632192       0.00000000
Si      -1.00955647       1.20227206      -3.20419878       0.00000000
Si       0.09282042       3.01016560       2.01787900       0.00000000
Si       2.63234836       0.61506805      -2.55706446       0.00000000
