10
Lattice="16.2900001489832 0.0 0.0 0.0 16.2900001489832 0.0 0.0 0.0 29.41385946727247" Properties=species:S:1:pos:R:3:initial_magmoms:R:1 pbc="T T T"
Si       1.43845588      -1.39211083      -1.28326786       0.00000000
Si      -1.34115571      -1.38289069       1.40779143       0.00000000
Si       1.34200279       1.27242820       1.52381440       0.00000000
Si      -1.41050224       1.43438338      -1.30500470       0.00000000
Si       2.82315639       2.51936255       0.19357202       0.00000000
Si      -3.05589000      -2.36288081       0.05450388       0.00000000
Si       2.88003782      -2.60934851       0.18972566       0.00000000
Si      -2.65416230      -0.02467935       2.84782928       0.00000000
Si      -0.06344955       2.73748566       2.77789783       0.00000000
Si       0.07364709      -2.81171919       2.75191657       0.00000000
