10
Lattice="16.2900001489832 0.0 0.0 0.0 16.2900001489832 0.0 0.0 0.0 29.41385946727247" Properties=species:S:1:pos:R:3:initial_magmoms:R:1 pbc="T T T"
Si       1.48115360       1.24693435      -1.33024238       0.00000000
Si      -1.40545234       1.46505745       1.25408343       0.00000000
Si       1.38637594      -1.28394523       1.46736921       0.00000000
Si      -1.34200279      -1.27242820      -1.52381440       0.00000000
Si      -2.68315850      -2.65531889      -0.11602297       0.00000000
Si      -2.68583006       0.08026083       2.73295934       0.00000000
Si       0.27852642       2.60420087      -2.80152304       0.00000000
Si       2.81550661      -2.61461018       0.15782006       0.00000000
Si       2.71176374       2.74336635       0.04984473       0.00000000
Si       0.02994102      -2.72419301       2.74201881       0.00000000
