10
Lattice="16.2900001489832 0.0 0.0 0.0 16.2900001489832 0.0 0.0 0.0 29.41385946727247" Properties=species:S:1:pos:R:3:initial_magmoms:R:1 pbc="T T T"
H       -1.33356457      -0.98266168       0.53618524       0.00000000
Si       1.66728477      -1.45463185       0.57924713       0.00000000
Si      -0.42225309       2.17118009       0.66160594       0.00000000
Si      -0.39384333      -0.01549179      -2.27575031       0.00000000
Si      -2.93764089      -1.20741481      -0.00885357       0.00000000
Si       0.83487880      -3.18233298      -0.69884389       0.00000000
Si      -2.74603791      -0.05825304      -2.06055851       0.00000000
Si       0.68716108      -1.99141994      -2.83255467       0.00000000
Si      -1.78531886       1.80524153       2.61003882       0.00000000
Si       0.43909695       2.07596504      -2.96185799       0.00000000
