10
Lattice="16.2900001489832 0.0 0.0 0.0 16.2900001489832 0.0 0.0 0.0 29.41385946727247" Properties=species:S:1:pos:R:3:initial_magmoms:R:1 pbc="T T T"
Si       1.11666322       1.69022761      -1.18624654       0.00000000
Si      -1.40071195       1.35912684       1.32269714       0.00000000
Si       1.35951226      -1.37709145       1.36689146       0.00000000
Si      -1.08543529      -1.34045524      -1.66001234       0.00000000
Si       2.46706351       0.43305336      -2.62643411       0.00000000
Si      -2.50797584       2.81608491      -0.16027906       0.00000000
Si       0.04339656       2.72800650       2.63370521       0.00000000
Si      -2.74401795      -2.62938521      -0.33329727       0.00000000
Si      -0.06012639      -2.73647568       2.65997179       0.00000000
Si       2.68198562      -2.74390392      -0.02981977       0.00000000
