10
Lattice="16.2900001489832 0.0 0.0 0.0 16.2900001489832 0.0 0.0 0.0 29.41385946727247" Properties=species:S:1:pos:R:3:initial_magmoms:R:1 pbc="T T T"
Si       1.50809563      -0.28155636       0.09127121       0.00000000
Si      -1.98868322       0.91548644      -1.51384311       0.00000000
Si      -2.70607853      -0.65513494       0.19972011       0.00000000
Si       2.14762475       1.09667376      -1.73991803       0.00000000
Si      -0.97336009       2.85863439      -0.59330696       0.00000000
Si      -1.47615094      -2.54606186       0.93200755       0.00000000
Si       1.62606781      -2.63373464      -0.42491261       0.00000000
Si       2.04892364       0.54752320       2.32695984       0.00000000
Si      -1.06504021      -0.38206566      -3.28485158       0.00000000
Si      -0.31641696      -2.09772848       2.96500528       0.00000000
