10
Lattice="16.2900001489832 0.0 0.0 0.0 16.2900001489832 0.0 0.0 0.0 29.41385946727247" Properties=species:S:1:pos:R:3:initial_magmoms:R:1 pbc="T T T"
Si      -1.10451088       1.01393848       0.29645816       0.00000000
Si       2.11533797      -1.93798874       0.29025597       0.00000000
Si      -2.51374250      -0.23778513       1.67378097       0.00000000
Si       0.21976839       2.59330286       1.59135157       0.00000000
H        1.85440475       1.00160695      -2.40217107       0.00000000
Si      -2.56064141       0.94765447      -1.68638480       0.00000000
Si       0.27821691      -2.76430225       1.67686942       0.00000000
Si       2.99524233      -0.04590522       1.51679920       0.00000000
Si       1.91961362      -2.03436038      -2.15227092       0.00000000
Si      -1.06256413      -1.40206402       3.10896847       0.00000000
