10
Lattice="16.2900001489832 0.0 0.0 0.0 16.2900001489832 0.0 0.0 0.0 29.41385946727247" Properties=species:S:1:pos:R:3:initial_magmoms:R:1 pbc="T T T"
Si      -1.28537549       1.36899532       1.43795535       0.00000000
Si       1.45004948      -1.36213723       1.28315021       0.00000000
Si      -1.39225142      -1.37714032      -1.33971306       0.00000000
Si       1.40881949       1.33001335      -1.37365665       0.00000000
Si       0.32336791       2.52177347       2.80972951       0.00000000
Si       2.70936423      -2.66219327      -0.19801410       0.00000000
Si       0.00276604      -2.71412579      -2.70489852       0.00000000
Si      -2.75855351       2.68061726       0.03270821       0.00000000
Si       0.00194177       2.69954624      -2.74248943       0.00000000
Si       2.79215001       2.64732050       0.09712456       0.00000000
