10
Lattice="16.2900001489832 0.0 0.0 0.0 16.2900001489832 0.0 0.0 0.0 29.41385946727247" Properties=species:S:1:pos:R:3:initial_magmoms:R:1 pbc="T T T"
Si       1.25931475      -1.30005604      -1.48116431       0.00000000
Si      -0.85305844      -1.74817766       1.34124258       0.00000000
Si      -1.45004948       1.36213723      -1.28315021       0.00000000
Si       1.65237617       1.02729628       1.39683477       0.00000000
Si       2.49720815      -2.59198337      -0.00997130       0.00000000
Si      -0.81937072      -0.58230235       3.49460182       0.00000000
Si       3.33285258      -0.96936904       1.50310705       0.00000000
Si      -0.04122999       2.69215058      -2.65680686       0.00000000
Si       2.70558983       0.07304436      -2.69754505       0.00000000
Si       0.70529185      -3.59533335       1.19658522       0.00000000
