10
Lattice="16.2900001489832 0.0 0.0 0.0 16.2900001489832 0.0 0.0 0.0 29.41385946727247" Properties=species:S:1:pos:R:3:initial_magmoms:R:1 pbc="T T T"
Si       1.41997488       1.30118005       1.36006745       0.00000000
Si       1.44228240      -1.33081156      -1.32850638       0.00000000
Si      -1.31821288      -1.34974054       1.44669126       0.00000000
Si      -1.38239548       1.35417142      -1.40271754       0.00000000
Si      -2.63947850      -2.68364720      -0.03829685       0.00000000
Si       0.03432873      -2.68056839      -2.67498462       0.00000000
Si       0.08737174       2.61961121       2.75057824       0.00000000
Si       0.03724318       2.71355564      -2.69579787       0.00000000
Si      -2.69255132       2.75333583      -0.00853002       0.00000000
Si       2.79921498       0.05750370      -2.71066363       0.00000000
