10
Lattice="16.2900001489832 0.0 0.0 0.0 16.2900001489832 0.0 0.0 0.0 29.41385946727247" Properties=species:S:1:pos:R:3:initial_magmoms:R:1 pbc="T T T"
Si       0.76965364      -2.16616277       0.21948622       0.00000000
Si      -2.32954821       0.29066247      -0.17454184       0.00000000
Si       1.02255589       1.37718919       1.62535105       0.00000000
Si       0.64542610       0.46374372      -2.24813069       0.00000000
H       -0.54177283       2.16002144       1.87504530       0.00000000
H       -1.86772019      -1.51265683       1.64279347       0.00000000
Si      -2.15921183       2.28177290      -1.46854576       0.00000000
Si      -0.89015077      -3.00596115      -1.48501752       0.00000000
Si       0.16669557      -2.67950954       2.47367617       0.00000000
H       -2.32103669      -1.94351105       2.11815085       0.00000000
