10
Lattice="16.2900001489832 0.0 0.0 0.0 16.2900001489832 0.0 0.0 0.0 29.41385946727247" Properties=species:S:1:pos:R:3:initial_magmoms:R:1 pbc="T T T"
Si      -2.26051445      -0.59466646       0.33172951       0.00000000
Si       0.44717679      -1.94593826      -1.29203319       0.00000000
Si       0.57368494       2.04152798      -1.15272915       0.00000000
Si       0.55374598       0.27745128       2.33987252       0.00000000
Si      -0.16993728       3.49733271       0.56053992       0.00000000
H       -2.13421808      -0.56187469      -2.83843744       0.00000000
Si       0.84497860       2.57588885       2.45570430       0.00000000
Si      -2.11279673      -1.78557950       2.46544029       0.00000000
Si      -3.34151886       1.38126169       0.88853387       0.00000000
H        3.17892837      -0.98461648      -1.75600741       0.00000000
