10
Lattice="16.2900001489832 0.0 0.0 0.0 16.2900001489832 0.0 0.0 0.0 29.41385946727247" Properties=species:S:1:pos:R:3:initial_magmoms:R:1 pbc="T T T"
Si      -1.66728477       1.45463185      -0.57924713       0.00000000
Si      -0.83240598      -1.72770113      -1.27809102       0.00000000
Si       1.83413673       0.33532965      -1.40365879       0.00000000
Si       0.14114959      -0.35406315       2.31137049       0.00000000
H       -3.00084935       0.47197017      -0.04306189       0.00000000
Si      -0.98012370      -0.53678808      -3.41180180       0.00000000
Si       2.12536935       2.63376722      -1.28782701       0.00000000
Si       0.67546486      -3.50676462      -0.79114458       0.00000000
H        3.15481591       0.01329264       1.88881099       0.00000000
Si      -2.06112811       1.43914006      -2.85499744       0.00000000
