10
Lattice="16.2900001489832 0.0 0.0 0.0 16.2900001489832 0.0 0.0 0.0 29.41385946727247" Properties=species:S:1:pos:R:3:initial_magmoms:R:1 pbc="T T T"
Si       1.50894271       1.32967126      -1.13325718       0.00000000
Si       1.31611798      -1.17643123       1.49219892       0.00000000
Si      -0.90453484      -1.75047455      -1.28973891       0.00000000
Si      -1.47116457       1.37233477       1.26055977       0.00000000
H        2.10913148      -1.38311875      -1.71229842       0.00000000
Si      -0.13681157      -2.48920976       2.74862222       0.00000000
Si       2.65994525       0.31249107       2.63852026       0.00000000
Si      -2.67379175       2.72960130      -0.21072089       0.00000000
Si      -2.85586509      -2.53913861      -0.21628011       0.00000000
Si       0.09327654      -3.81166455      -0.60589609       0.00000000
