10
Lattice="10.86 0.0 0.0 0.0 10.86 0.0 0.0 0.0 10.86" Properties=species:S:1:pos:R:3:initial_magmoms:R:1 pbc="T T T"
Si       1.27556130      -1.32776532       1.39646568       0.00000000
Si      -1.43943870      -1.32776532      -1.31853432       0.00000000
Si      -1.43943870       1.38723468       1.39646568       0.00000000
Si       2.63306130      -2.68526532       0.03896568       0.00000000
Si      -0.08193870      -2.68526532      -2.67603432       0.00000000
Si       2.63306130       0.02973468       2.75396568       0.00000000
Si      -0.08193870      -2.68526532       2.75396568       0.00000000
Si      -2.79693870       0.02973468      -2.67603432       0.00000000
Si      -2.79693870      -2.68526532       0.03896568       0.00000000
Si      -0.08193870       2.74473468       2.75396568       0.00000000
