10
Lattice="10.86 0.0 0.0 0.0 10.86 0.0 0.0 0.0 10.86" Properties=species:S:1:pos:R:3:initial_magmoms:R:1 pbc="T T T"
Si       1.27853694       1.23129594      -1.42938234       0.00000000
Si      -1.43646306       1.23129594       1.28561766       0.00000000
Si       1.27853694      -1.48370406       1.28561766       0.00000000
Si       2.63603694       2.58879594      -0.07188234       0.00000000
Si      -0.07896306       2.58879594       2.64311766       0.00000000
Si       2.63603694      -0.12620406       2.64311766       0.00000000
Si      -0.07896306       2.58879594      -2.78688234       0.00000000
Si      -2.79396306       2.58879594      -0.07188234       0.00000000
Si       2.63603694      -0.12620406      -2.78688234       0.00000000
Si      -2.79396306      -0.12620406       2.64311766       0.00000000
