10
Lattice="16.28999089631971 0.0 0.0 0.0 16.28999089631971 0.0 0.0 0.0 34.51530692428229" Properties=species:S:1:pos:R:3:initial_magmoms:R:1 pbc="T T T"
Si      -1.28140398      -1.03592997      -1.62843309       0.00000000
Si      -0.49006836       2.27924793      -0.03213377       0.00000000
Si      -0.65453220      -1.05034662       1.99605583       0.00000000
Si       2.26217601      -0.05483214      -0.65586023       0.00000000
Si      -0.46042056      -3.21812697      -1.06327914       0.00000000
Si       0.00687438      -3.16877152       1.29142545       0.00000000
Si       0.20007378       2.73896802       2.23383191       0.00000000
Si       2.21185620       1.59742998      -2.31556420       0.00000000
Si       3.29527152       0.75033369       1.33494927       0.00000000
Si       1.72405215       1.07574273       3.11770039       0.00000000
