10
Lattice="16.28999089631971 0.0 0.0 0.0 16.28999089631971 0.0 0.0 0.0 34.51530692428229" Properties=species:S:1:pos:R:3:initial_magmoms:R:1 pbc="T T T"
Si      -1.20422196      -1.55209884      -1.36345893       0.00000000
Si       1.53573975       1.16716547      -1.49879353       0.00000000
Si       0.22618665      -0.52443374       2.42249269       0.00000000
Si      -1.44774117       2.05576868      -0.45190917       0.00000000
Si       2.38272201       0.83774909       2.26738081       0.00000000
Si      -2.38585621      -0.07380347      -2.85196689       0.00000000
Si      -1.95638013       0.18973126       3.21769129       0.00000000
Si      -2.99456301      -2.36259150       0.08463158       0.00000000
Si       3.26609613       1.99927496      -0.05318812       0.00000000
Si       0.31423410       2.66856590      -2.84005910       0.00000000
