10
Lattice="16.28999089631971 0.0 0.0 0.0 16.28999089631971 0.0 0.0 0.0 34.51530692428229" Properties=species:S:1:pos:R:3:initial_magmoms:R:1 pbc="T T T"
Si       0.86710041       2.03453955      -0.67277274       0.00000000
Si      -1.57944582       0.61732584       1.58656600       0.00000000
Si      -1.51148394      -0.09154980      -1.79441729       0.00000000
Si       1.39952277      -1.40828679       1.41996052       0.00000000
Si       1.57379319       2.49842988       1.56247430       0.00000000
Si       0.04469976       1.37977929       3.08145929       0.00000000
Si      -0.85007736      -2.20997471      -2.49904768       0.00000000
Si      -2.77550649      -1.35428544       2.11130250       0.00000000
Si       1.37818287      -3.07417751      -1.84639738       0.00000000
Si       1.11044043      -0.59572530       3.63415321       0.00000000
