10
Lattice="16.28999089631971 0.0 0.0 0.0 16.28999089631971 0.0 0.0 0.0 34.51530692428229" Properties=species:S:1:pos:R:3:initial_magmoms:R:1 pbc="T T T"
Si       1.00493010       2.05662879      -0.77697451       0.00000000
Si      -0.30214692      -1.90500147      -1.50652496       0.00000000
Si      -2.40306822       0.45931284      -0.15773504       0.00000000
Si       1.91490579      -2.17060666      -0.84652289       0.00000000
Si      -0.46555191       2.29227993       1.98114521       0.00000000
Si      -2.27271564       2.75162535       0.39195604       0.00000000
Si      -0.97248042       3.21934383      -1.40667212       0.00000000
Si       2.03238927       1.26012924      -2.80865016       0.00000000
Si       2.90149335      -1.10428281       2.03957966       0.00000000
Si      -0.83851146      -2.97832351       2.05818342       0.00000000
