10
Lattice="16.28999089631971 0.0 0.0 0.0 16.28999089631971 0.0 0.0 0.0 34.51530692428229" Properties=species:S:1:pos:R:3:initial_magmoms:R:1 pbc="T T T"
Si      -1.34148150      -1.36324494      -1.39807780       0.00000000
Si       1.37650500       1.35446463      -1.39438466       0.00000000
Si       1.26744345      -1.45806903       1.45537325       0.00000000
Si      -1.39232259       1.38284181       1.62418771       0.00000000
Si      -2.68350057       2.69410536      -0.02188272       0.00000000
Si      -2.70967860      -2.70127296      -0.01984631       0.00000000
Si       0.28323423       2.55689469       2.83816076       0.00000000
Si       2.72060919       2.70573642      -0.01187327       0.00000000
Si       2.72393235      -2.71792134      -0.01991534       0.00000000
Si      -2.70109377      -0.00552231      -2.75466819       0.00000000
