10
Lattice="16.28999089631971 0.0 0.0 0.0 16.28999089631971 0.0 0.0 0.0 34.51530692428229" Properties=species:S:1:pos:R:3:initial_magmoms:R:1 pbc="T T T"
Si      -1.61798796       0.49451553       1.89285500       0.00000000
Si       1.78561206       1.72916721       0.52135400       0.00000000
Si       1.07790930      -2.18994615       0.92580460       0.00000000
Si      -0.72405792       0.79739550      -2.40547663       0.00000000
Si       2.53421901      -0.07592769      -1.31375686       0.00000000
Si       3.31051896      -1.52251227       0.41749739       0.00000000
Si      -2.00391435       3.05926200      -0.92318143       0.00000000
Si      -2.43170604       2.68786629       1.52178073       0.00000000
Si       2.64710871       1.12790331       2.86152764       0.00000000
Si      -3.70317149      -0.62310879       1.77857476       0.00000000
