10
Lattice="16.28999089631971 0.0 0.0 0.0 16.28999089631971 0.0 0.0 0.0 34.51530692428229" Properties=species:S:1:pos:R:3:initial_magmoms:R:1 pbc="T T T"
Si       1.67180849      -0.16382853       1.67292335       0.00000000
Si      -1.73504043      -1.02382650       1.27803350       0.00000000
Si      -0.40501827       2.35527336      -0.22138130       0.00000000
Si       0.32938217      -1.63240624      -1.73149585       0.00000000
Si      -0.86416984      -3.17111647       1.36936105       0.00000000
Si       1.25937827      -2.45282928       2.28836613       0.00000000
Si      -1.04373288      -3.52762298      -1.00529339       0.00000000
Si      -3.66446061      -1.20045897      -0.07869494       0.00000000
Si       1.68016526       3.47289768      -0.10710106       0.00000000
Si      -1.09536566       3.32477271       1.87701247       0.00000000
