10
Lattice="16.28999089631971 0.0 0.0 0.0 16.28999089631971 0.0 0.0 0.0 34.51530692428229" Properties=species:S:1:pos:R:3:initial_magmoms:R:1 pbc="T T T"
Si      -0.62666001       1.00756908       2.01459056       0.00000000
Si      -0.57824613       1.53091791      -1.72169350       0.00000000
Si       2.42071029      -0.41005188       0.00659243       0.00000000
Si       1.05531507       2.62808199       1.82451466       0.00000000
Si       0.50557644      -3.61527228       0.39540758       0.00000000
Si       2.56720626      -2.17932507       1.61048512       0.00000000
Si       2.74623336      -1.56747267      -2.07274889       0.00000000
Si      -1.70196291      -2.90603826       1.80156197       0.00000000
Si      -2.03507712       0.28826784      -3.24005722       0.00000000
Si       0.08804745      -0.36139365       3.87883236       0.00000000
