10
Lattice="16.28999089631971 0.0 0.0 0.0 16.28999089631971 0.0 0.0 0.0 34.51530692428229" Properties=species:S:1:pos:R:3:initial_magmoms:R:1 pbc="T T T"
Si       1.14507297       1.89951174      -0.77593905       0.00000000
Si       0.45165654      -1.71761760      -1.58801564       0.00000000
Si      -2.25820844       0.54636660       0.53488401       0.00000000
Si       1.12646979      -0.26666730       2.30897178       0.00000000
Si      -0.71470583       3.34247994      -1.05168199       0.00000000
Si      -2.70720971       2.12768577      -1.08806114       0.00000000
Si       1.25682237       2.02564521       2.85866286       0.00000000
Si       2.55705759       2.49336369       1.06003470       0.00000000
Si      -0.81068325      -3.54039204      -0.90675213       0.00000000
Si       2.74172103      -2.19991563      -1.31210013       0.00000000
