10
Lattice="16.28999089631971 0.0 0.0 0.0 16.28999089631971 0.0 0.0 0.0 34.51530692428229" Properties=species:S:1:pos:R:3:initial_magmoms:R:1 pbc="T T T"
Si      -1.34864910      -1.35822762      -1.37350289       0.00000000
Si       1.36016613       1.35659862      -1.37723055       0.00000000
Si       1.33548678      -1.28322846       1.52681997       0.00000000
Si      -1.45648890       1.25985231       1.47528859       0.00000000
Si      -0.57028032      -2.28377655       2.70355099       0.00000000
Si       2.19278061       0.50601627       2.89970159       0.00000000
Si       0.21365964       2.31230034       2.92313749       0.00000000
Si      -2.48174892      -0.65264256       2.78694002       0.00000000
Si       2.71609686      -2.71822922       0.02032953       0.00000000
Si       2.72259657       2.71911051       0.00345153       0.00000000
