10
Lattice="16.28999089631971 0.0 0.0 0.0 16.28999089631971 0.0 0.0 0.0 34.51530692428229" Properties=species:S:1:pos:R:3:initial_magmoms:R:1 pbc="T T T"
Si       0.99970101       1.55419632       1.54307669       0.00000000
Si       1.40341608      -1.29512016      -1.47977558       0.00000000
Si      -1.32250365       1.40942709      -1.47518504       0.00000000
Si      -1.10552085      -1.70193033       1.43991038       0.00000000
Si      -0.39956112       0.91461834       3.60402133       0.00000000
Si       2.66062941       2.67533928      -0.07962686       0.00000000
Si       2.67814116      -2.66188374       0.02467846       0.00000000
Si      -0.68828508       3.59533332       1.11239445       0.00000000
Si      -2.65401567       2.77397523       0.00945720       0.00000000
Si       0.87360012      -3.50821440       1.41647447       0.00000000
