10
Lattice="16.28999089631971 0.0 0.0 0.0 16.28999089631971 0.0 0.0 0.0 34.51530692428229" Properties=species:S:1:pos:R:3:initial_magmoms:R:1 pbc="T T T"
Si       1.35812988       1.35521397       1.35759133       0.00000000
Si      -1.35749457       1.35697329      -1.35738423       0.00000000
Si       1.35778779      -1.35747828      -1.35738423       0.00000000
Si      -1.35892809      -1.35959598       1.35810906       0.00000000
Si      -0.00286704       2.71349046      -2.71404365       0.00000000
Si       2.71485882       2.71419093       0.00006903       0.00000000
Si      -0.00089595      -2.71441899      -2.71483750       0.00000000
Si      -2.71494027       2.71437012      -0.00017258       0.00000000
Si      -2.71259451       0.00034209       2.71711551       0.00000000
Si      -2.71619460      -0.00104256      -2.71380204       0.00000000
