10
Lattice="16.28999089631971 0.0 0.0 0.0 16.28999089631971 0.0 0.0 0.0 34.51530692428229" Properties=species:S:1:pos:R:3:initial_magmoms:R:1 pbc="T T T"
Si      -1.79447382      -0.39706875       1.40094258       0.00000000
Si       1.92645540       0.74311722       1.13793579       0.00000000
Si       0.76883913      -2.21060187      -0.30708286       0.00000000
Si      -0.64016442       1.68407649      -1.54028095       0.00000000
Si       0.72485613       0.81686205      -3.18034570       0.00000000
Si       3.56581584      -0.34454979      -0.15462866       0.00000000
Si       0.30587733       3.57700707      -0.66925218       0.00000000
Si       1.38983022       0.27552906       3.40314213       0.00000000
Si      -0.97614567       0.13729212       3.56643414       0.00000000
Si       2.87562483       0.64026216      -2.24829383       0.00000000
