10
Lattice="16.28999089631971 0.0 0.0 0.0 16.28999089631971 0.0 0.0 0.0 34.51530692428229" Properties=species:S:1:pos:R:3:initial_magmoms:R:1 pbc="T T T"
Si      -0.01531260      -2.25347715      -0.44055362       0.00000000
Si      -1.03405662       1.28055920      -1.63078013       0.00000000
Si       2.22202116       0.78370785      -0.01428935       0.00000000
Si      -0.53299251       0.74084993       2.19876434       0.00000000
Si       1.92764457       0.70804485       2.28104888       0.00000000
Si      -2.76125274       1.60505274       1.54611404       0.00000000
Si       2.25219024      -2.67432930      -0.91410390       0.00000000
Si       0.43284159       3.11861366      -1.89320016       0.00000000
Si      -3.22854768       1.55569730      -0.80859055       0.00000000
Si      -2.00153601      -2.66947488      -1.68248409       0.00000000
