10
Lattice="16.28999089631971 0.0 0.0 0.0 16.28999089631971 0.0 0.0 0.0 34.51530692428229" Properties=species:S:1:pos:R:3:initial_magmoms:R:1 pbc="T T T"
Si       1.35665563       1.35725022      -1.35603814       0.00000000
Si      -1.35845694      -1.35663120      -1.35724617       0.00000000
Si       1.35737240      -1.35760860       1.35759133       0.00000000
Si      -1.35790854       1.35809730       1.35717714       0.00000000
Si      -2.71425513       0.00216657       2.71421622       0.00000000
Si       2.71432939      -2.71441899       0.00013806       0.00000000
Si       0.00106374      -2.71156824      -2.71752969       0.00000000
Si      -2.71534656      -2.71425609      -0.00003452       0.00000000
Si       2.71434568      -0.00114030       2.71549329       0.00000000
Si       0.00001955      -2.71622718       2.71380204       0.00000000
