10
Lattice="16.28999089631971 0.0 0.0 0.0 16.28999089631971 0.0 0.0 0.0 34.51530692428229" Properties=species:S:1:pos:R:3:initial_magmoms:R:1 pbc="T T T"
Si      -1.27472508       1.36676358      -1.50445404       0.00000000
Si       1.31781213       1.43062038       1.43680400       0.00000000
Si      -1.80454104      -0.84633066       1.39179601       0.00000000
Si       1.43716896      -1.34812782      -1.49682615       0.00000000
Si      -2.66183487      -2.63557539       0.01891440       0.00000000
Si      -2.67814116       2.66188374      -0.02467846       0.00000000
Si       2.80577229       2.69050527       0.00811110       0.00000000
Si      -2.63715552       0.00425169      -2.88513612       0.00000000
Si       0.08231337      -2.71344159      -2.87992430       0.00000000
Si       2.99274571      -2.59297704      -0.11966464       0.00000000
