10
Lattice="16.28999089631971 0.0 0.0 0.0 16.28999089631971 0.0 0.0 0.0 34.51530692428229" Properties=species:S:1:pos:R:3:initial_magmoms:R:1 pbc="T T T"
Si      -1.81863189       0.49467843       1.41640168       0.00000000
Si       1.50926850       1.70194662      -0.85905195       0.00000000
Si      -2.04747381       0.56268918      -1.28317628       0.00000000
Si       1.12943457      -2.04151167       1.15156934       0.00000000
Si      -0.07703541       1.84368591       2.56655763       0.00000000
Si      -1.72727757      -2.16542970      -1.77702157       0.00000000
Si       1.20557403       3.40472403       0.78826102       0.00000000
Si       3.63921858       0.71172639      -0.65806921       0.00000000
Si       2.64645711      -1.07092089       2.68171111       0.00000000
Si       2.19030453      -3.24113985      -0.71029090       0.00000000
