10
Lattice="16.28999089631971 0.0 0.0 0.0 16.28999089631971 0.0 0.0 0.0 34.51530692428229" Properties=species:S:1:pos:R:3:initial_magmoms:R:1 pbc="T T T"
Si      -1.28236509       0.44460297       1.87573540       0.00000000
Si       2.06176014       0.53615277       0.92069633       0.00000000
Si      -1.00349658       1.47250197      -1.50224506       0.00000000
Si      -0.11168424      -1.56548529      -1.75562207       0.00000000
Si      -0.77304195       0.06260247      -3.36828165       0.00000000
Si       2.71805166      -1.66772133       1.34354359       0.00000000
Si      -3.43313379       0.62120286       0.94368353       0.00000000
Si      -0.65699199       2.67551847       2.46408365       0.00000000
Si       0.38397159       3.37334949      -1.48070749       0.00000000
Si       1.67022999       2.24917659       2.60956575       0.00000000
