10
Lattice="16.28999089631971 0.0 0.0 0.0 16.28999089631971 0.0 0.0 0.0 34.51530692428229" Properties=species:S:1:pos:R:3:initial_magmoms:R:1 pbc="T T T"
Si       1.35758881       1.35606105       1.35659038       0.00000000
Si       1.35751062      -1.35755158      -1.35690102       0.00000000
Si      -1.35694650      -1.35936955       1.35614168       0.00000000
Si      -1.35777729       1.35803214      -1.35724617       0.00000000
Si      -0.00109274      -2.71418183       2.71407816       0.00000000
Si       2.71424119      -0.00159642       2.71469944       0.00000000
Si       2.71472989      -2.71423954       0.00006903       0.00000000
Si      -0.00067486      -2.71455006      -2.71459589       0.00000000
Si      -2.71510896      -0.00001629      -2.71431977       0.00000000
Si      -2.71463655      -2.71491229       0.00006903       0.00000000
