10
Lattice="16.28999089631971 0.0 0.0 0.0 16.28999089631971 0.0 0.0 0.0 34.51530692428229" Properties=species:S:1:pos:R:3:initial_magmoms:R:1 pbc="T T T"
Si       1.35858600      -1.35451350       1.35993837       0.00000000
Si      -1.35713619       1.35955386       1.35990385       0.00000000
Si      -1.35444834      -1.35596331      -1.37679565       0.00000000
Si       1.37479455       1.34990343      -1.37547717       0.00000000
Si      -2.71505430      -2.70863604       0.00148416       0.00000000
Si      -2.71184517       2.71737141      -0.00203640       0.00000000
Si       0.00104256      -2.71243161       2.71763324       0.00000000
Si      -2.71378368       0.00232947       2.71694293       0.00000000
Si       2.71878471      -2.71334385      -0.00220898       0.00000000
Si       2.71630863       0.00286704       2.71739163       0.00000000
