10
Lattice="16.28999089631971 0.0 0.0 0.0 16.28999089631971 0.0 0.0 0.0 34.51530692428229" Properties=species:S:1:pos:R:3:initial_magmoms:R:1 pbc="T T T"
Si       1.35702216       1.35562122       1.35483010       0.00000000
Si       1.35366642      -1.35523026      -1.35907548       0.00000000
Si      -1.35913986       1.35821133      -1.35772939       0.00000000
Si      -1.35545832      -1.36806678       1.35258660       0.00000000
Si      -2.68473861      -0.03925890       2.71421622       0.00000000
Si       2.70769003      -2.70570384       0.00258865       0.00000000
Si       0.00780291       2.61498483       2.79777783       0.00000000
Si      -2.71640637      -2.71062342       0.00086288       0.00000000
Si       2.71217473       0.00291591      -2.71497556       0.00000000
Si      -0.00270414      -2.71217097      -2.71528620       0.00000000
