10
Lattice="16.28999089631971 0.0 0.0 0.0 16.28999089631971 0.0 0.0 0.0 34.51530692428229" Properties=species:S:1:pos:R:3:initial_magmoms:R:1 pbc="T T T"
Si      -1.00041777       2.09854296       0.01646381       0.00000000
Si      -1.49382558      -1.10001483       1.40446314       0.00000000
Si       0.49065873      -1.09327077      -2.01434895       0.00000000
Si       2.00991626       0.44429346       1.15533151       0.00000000
Si      -0.75857643       2.52916911       2.39401754       0.00000000
Si       0.60669566       3.31464019      -1.17538492       0.00000000
Si       2.81265488      -0.73581930      -2.14578332       0.00000000
Si      -1.88535573       0.61300899       3.09333257       0.00000000
Si      -3.17161413       1.73718189      -0.99694068       0.00000000
Si       2.57967530      -1.39856166       2.40554566       0.00000000
