10
Lattice="16.28999089631971 0.0 0.0 0.0 16.28999089631971 0.0 0.0 0.0 34.51530692428229" Properties=species:S:1:pos:R:3:initial_magmoms:R:1 pbc="T T T"
Si      -2.16981171       0.82851007      -0.44414322       0.00000000
Si       1.06106544      -1.72589292      -1.25363116       0.00000000
Si       1.37067318       1.93248989      -0.52121594       0.00000000
Si       0.05615163      -2.50416396       1.62641813       0.00000000
Si      -2.65466727      -0.91044810      -1.90638501       0.00000000
Si      -0.92613537       1.50582221       2.91334691       0.00000000
Si       0.30980322       3.13211807       1.34064430       0.00000000
Si      -2.86837578       0.64618262       1.75322571       0.00000000
Si       1.77010398      -1.38132684       2.75192219       0.00000000
Si      -0.17953209      -3.58474482      -0.42616073       0.00000000
