10
Lattice="16.28999089631971 0.0 0.0 0.0 16.28999089631971 0.0 0.0 0.0 34.51530692428229" Properties=species:S:1:pos:R:3:initial_magmoms:R:1 pbc="T T T"
Si      -0.29792618       1.43560512      -1.73360129       0.00000000
Si       2.29701380      -0.27202671      -0.30549515       0.00000000
Si      -0.83191142       1.39766571       1.68452050       0.00000000
Si      -1.48421189      -1.82633706      -0.28582142       0.00000000
Si      -0.88874723      -2.21267070       2.04862267       0.00000000
Si      -2.57549528       1.84568958      -1.66850538       0.00000000
Si      -1.81688627      -0.17332560       3.11138408       0.00000000
Si       0.15576661       3.61929591      -0.64574724       0.00000000
Si      -2.61703478       2.57136021       0.58047876       0.00000000
Si       2.46924797      -2.05299612      -1.93769041       0.00000000
