10
Lattice="16.28999089631971 0.0 0.0 0.0 16.28999089631971 0.0 0.0 0.0 34.51530692428229" Properties=species:S:1:pos:R:3:initial_magmoms:R:1 pbc="T T T"
Si       0.00771169      -1.35014778       1.90293348       0.00000000
Si       1.98025801       1.14754905      -0.48041883       0.00000000
Si      -0.17943598      -1.52723637      -1.82202956       0.00000000
Si      -1.46367898       1.79162307       0.76689603       0.00000000
Si       1.80183364       1.54307025      -2.78580101       0.00000000
Si      -3.41441073       1.19360088      -0.62759218       0.00000000
Si       1.68034282      -2.97020457      -1.54628661       0.00000000
Si       3.80980420      -0.21822084       0.01263261       0.00000000
Si      -0.38759286       3.84261552      -0.00283026       0.00000000
Si      -1.78855470      -2.96461710       1.77077430       0.00000000
