10
Lattice="16.28999089631971 0.0 0.0 0.0 16.28999089631971 0.0 0.0 0.0 34.51530692428229" Properties=species:S:1:pos:R:3:initial_magmoms:R:1 pbc="T T T"
Si       1.46367898      -1.79162307      -0.76689603       0.00000000
Si       1.07608612       2.05099245      -0.76972629       0.00000000
Si      -1.95073175      -0.59802219      -1.39448821       0.00000000
Si       0.39234270      -0.13354542       2.74590129       0.00000000
Si      -3.29071457      -0.36127962       0.64364180       0.00000000
Si       1.47139067      -3.14177085       1.13603745       0.00000000
Si       3.29514413       1.57496607       0.05608741       0.00000000
Si       3.44393699      -0.64407402      -1.24731486       0.00000000
Si       0.23650115       3.82249737       0.69720959       0.00000000
Si      -2.19161198      -2.93902551      -1.69559992       0.00000000
