10
Lattice="16.28999089631971 0.0 0.0 0.0 16.28999089631971 0.0 0.0 0.0 34.51530692428229" Properties=species:S:1:pos:R:3:initial_magmoms:R:1 pbc="T T T"
Si      -1.35778637       1.35474799       1.36128447       0.00000000
Si       1.35817223      -1.36055709       1.36118092       0.00000000
Si       1.37074811       1.33859817      -1.38329144       0.00000000
Si      -1.35026484      -1.37253024      -1.38783020       0.00000000
Si      -0.03576632       2.66954397      -2.74030291       0.00000000
Si      -2.71485623       2.71276134       0.00576406       0.00000000
Si       2.71822433       2.71047911      -0.00079385       0.00000000
Si       0.00039910       2.71174647       2.71897934       0.00000000
Si      -2.71220096      -2.71893132      -0.00086288       0.00000000
Si       2.71279976      -2.71889874       0.00165674       0.00000000
