10
Lattice="16.28999089631971 0.0 0.0 0.0 16.28999089631971 0.0 0.0 0.0 34.51530692428229" Properties=species:S:1:pos:R:3:initial_magmoms:R:1 pbc="T T T"
Si      -1.34776944      -1.35663120      -1.37170809       0.00000000
Si       1.36756179       1.36112724      -1.37729958       0.00000000
Si       1.28409183      -1.39323483       1.42972836       0.00000000
Si      -1.51756011       1.22743521       1.47808433       0.00000000
Si      -0.53439345      -2.43245538       2.52717767       0.00000000
Si      -2.69919436       2.70573057      -0.01042363       0.00000000
Si       2.72163546       2.68991136       0.00262316       0.00000000
Si      -2.71588835      -2.70457983       0.00113901       0.00000000
Si       2.72368800      -2.71581993       0.00959526       0.00000000
Si      -2.70574457       0.00078192      -2.73392447       0.00000000
