10
Lattice="16.290000149 0.0 0.0 0.0 16.290000149 0.0 0.0 0.0 29.1751946751" Properties=species:S:1:pos:R:3:initial_magmoms:R:1 pbc="T T T"
Si       1.32899360      -1.36065484       1.37333476       0.00000000
Si      -1.37069926      -1.36909306      -1.32443714       0.00000000
Si      -1.36638241       1.35035956       1.34981956       0.00000000
Si       1.36771493       1.36516717      -1.34401369       0.00000000
Si      -2.69589077       0.01448181      -2.68429296       0.00000000
Si       0.00965345      -2.71718506      -2.66512486       0.00000000
Si       2.68401210       0.00649971       2.71244702       0.00000000
Si      -0.02427699       2.71609688       2.69981416       0.00000000
Si       2.72701770       0.00988803      -2.69780108       0.00000000
Si      -2.70258596       2.72567540      -0.00347185       0.00000000
