10
Lattice="16.290000149 0.0 0.0 0.0 16.290000149 0.0 0.0 0.0 29.1751946751" Properties=species:S:1:pos:R:3:initial_magmoms:R:1 pbc="T T T"
Si       1.22443786      -1.53194419       1.24143371       0.00000000
Si      -1.39064473      -1.35466012      -1.28796814       0.00000000
Si      -1.05463090       1.46984671       1.47734433       0.00000000
Si       1.37678194       1.31891986      -1.35658820       0.00000000
Si       0.75867418       2.22552353       2.86161979       0.00000000
Si      -2.36573156       0.11477934       2.86593772       0.00000000
Si      -0.01715337       2.60110577      -2.71854464       0.00000000
Si      -0.02945232      -2.69961140      -2.62556329       0.00000000
Si      -2.74191653       0.00573408      -2.59539614       0.00000000
Si      -2.50310513       2.82133029       0.19471525       0.00000000
