10
Lattice="16.290000149 0.0 0.0 0.0 16.290000149 0.0 0.0 0.0 29.1751946751" Properties=species:S:1:pos:R:3:initial_magmoms:R:1 pbc="T T T"
Si      -1.07865865      -1.16175394       1.71083342       0.00000000
Si       0.87004891      -1.78240295      -1.28598423       0.00000000
Si       1.87126490       1.46082205       0.15395750       0.00000000
Si      -1.59848884       1.30017007      -1.21494263       0.00000000
H        0.47125341       2.29526102       1.77954100       0.00000000
H       -1.23176836      -0.36735579       2.98859024       0.00000000
H        2.58657509       1.53806923       1.48099123       0.00000000
Si       1.99168058      -0.34655346      -2.83944665       0.00000000
Si      -3.28991214      -1.07551468       0.91359205       0.00000000
Si      -0.28738818       2.65523744      -2.60353602       0.00000000
