10
Lattice="16.290000149 0.0 0.0 0.0 16.290000149 0.0 0.0 0.0 29.1751946751" Properties=species:S:1:pos:R:3:initial_magmoms:R:1 pbc="T T T"
Si      -1.39970197       1.42452793      -1.22334509       0.00000000
Si      -1.32625036      -1.38248344       1.37568337       0.00000000
Si       1.19878111      -1.47338164      -1.42908856       0.00000000
Si       1.30833136       1.44650314       1.37019260       0.00000000
H        3.22256928       1.73068220      -0.50802766       0.00000000
Si      -0.00687438       2.65665467      -2.65004128       0.00000000
Si       2.67051746      -2.68190417       0.02576170       0.00000000
Si       2.52956009      -0.14079447      -2.82634698       0.00000000
Si      -2.90297577       0.13986594      -2.50982530       0.00000000
Si       2.73592182       0.07982100       2.70440634       0.00000000
