10
Lattice="16.290000149 0.0 0.0 0.0 16.290000149 0.0 0.0 0.0 29.1751946751" Properties=species:S:1:pos:R:3:initial_magmoms:R:1 pbc="T T T"
Si       1.42192642       1.43803234       1.16636593       0.00000000
Si       1.44108672      -1.24014142      -1.36834581       0.00000000
Si      -1.29200878       1.41112126      -1.36213149       0.00000000
Si      -1.63989802      -1.05288787       1.43180185       0.00000000
H        0.26341745      -2.62655075       1.70464827       0.00000000
H       -1.10455975       1.41020902       2.80761651       0.00000000
Si      -0.06810849       2.51375879       2.59046554       0.00000000
Si      -2.62844039       2.47964753       0.25770449       0.00000000
Si       0.08367766      -2.64267785      -2.68718131       0.00000000
Si      -3.32030928       0.62252236       1.68028699       0.00000000
