10
Lattice="16.290000149 0.0 0.0 0.0 16.290000149 0.0 0.0 0.0 29.1751946751" Properties=species:S:1:pos:R:3:initial_magmoms:R:1 pbc="T T T"
H       -1.62448931       0.03241221       0.48655472       0.00000000
Si       1.34915247      -1.42947521       1.22457045       0.00000000
Si      -1.20918081      -1.39096565      -1.46068530       0.00000000
Si       1.40668875       1.34989204      -1.37447260       0.00000000
Si      -1.24975415       1.32840553       1.69376593       0.00000000
H        1.54513747       1.52013883       2.11569759       0.00000000
Si       2.20872691       0.25005476       2.59347058       0.00000000
Si      -2.48922768       2.69055905       0.15246957       0.00000000
Si      -2.52247557      -2.67562764      -0.04309176       0.00000000
Si      -2.68622265      -0.04688099      -2.67031804       0.00000000
