10
Lattice="16.290000149 0.0 0.0 0.0 16.290000149 0.0 0.0 0.0 29.1751946751" Properties=species:S:1:pos:R:3:initial_magmoms:R:1 pbc="T T T"
Si       0.61735843       0.51627897      -2.18207116       0.00000000
Si      -2.30119058      -0.05732451       0.45460788       0.00000000
Si       0.76854592       2.04623579       0.88041985       0.00000000
Si       1.22144050      -1.87092281       0.95283268       0.00000000
Si       1.69502339       1.00403416       2.71623980       0.00000000
Si       3.02883231      -0.54322264       1.56244838       0.00000000
Si       1.29904606      -1.53571207      -2.94517755       0.00000000
Si      -0.24247665      -0.02555901       3.61819094       0.00000000
Si      -2.44597610       0.35637633       2.81342237       0.00000000
Si      -3.15226164       2.02883807      -0.32772496       0.00000000
