10
Lattice="16.290000149 0.0 0.0 0.0 16.290000149 0.0 0.0 0.0 29.1751946751" Properties=species:S:1:pos:R:3:initial_magmoms:R:1 pbc="T T T"
Si      -1.25520967       1.10789268      -1.60084293       0.00000000
Si      -1.89607457      -0.01524907       1.33832453       0.00000000
Si       1.57379320       1.68822394       0.44104142       0.00000000
Si       0.43095195      -2.29057602       0.30523089       0.00000000
H        1.83775637       0.57744955      -2.38031661       0.00000000
H       -2.07500393       1.37270293       1.94805692       0.00000000
Si      -1.06280848      -1.25951675       3.05241390       0.00000000
Si       2.04169088      -2.46790896      -1.37315971       0.00000000
Si       0.84279574       2.32200269       2.62057930       0.00000000
Si      -2.58901859       2.65514948      -0.44705151       0.00000000
