10
Lattice="16.290000149 0.0 0.0 0.0 16.290000149 0.0 0.0 0.0 29.1751946751" Properties=species:S:1:pos:R:3:initial_magmoms:R:1 pbc="T T T"
Si      -1.82234603      -1.30184794       0.64144583       0.00000000
Si       1.82604386      -1.45573957      -0.16516078       0.00000000
Si      -1.04852215       0.83018728      -1.94569373       0.00000000
Si       0.65093212       1.77507245       1.58570101       0.00000000
H        0.00526167      -1.14460057       3.12618046       0.00000000
Si      -2.58919778       2.07888095      -0.71735969       0.00000000
Si       3.45219312       0.22776678      -0.09420670       0.00000000
Si      -3.48913884       0.33896232       0.55499973       0.00000000
Si      -1.35172792      -1.72182044       2.85324651       0.00000000
Si       2.88233634       1.26239356       1.91418452       0.00000000
