10
Lattice="16.290000149 0.0 0.0 0.0 16.290000149 0.0 0.0 0.0 29.1751946751" Properties=species:S:1:pos:R:3:initial_magmoms:R:1 pbc="T T T"
Si      -1.38500839       1.34162812       1.33619474       0.00000000
Si      -1.36526491      -1.34086249      -1.37021302       0.00000000
Si       1.34390872       1.36523233      -1.36965869       0.00000000
Si       1.34012944      -1.36402687       1.37619393       0.00000000
Si      -2.68061726       2.64824903      -0.12274004       0.00000000
Si       2.66035739      -2.69731451      -0.03413498       0.00000000
Si       0.00474039       2.69604389       2.66646692       0.00000000
Si      -2.73463491      -0.04645908       2.68362193       0.00000000
Si       2.73323234       0.00825903       2.68939862       0.00000000
Si      -0.01795158      -2.68773599      -2.73742099       0.00000000
