10
Lattice="16.290000149 0.0 0.0 0.0 16.290000149 0.0 0.0 0.0 29.1751946751" Properties=species:S:1:pos:R:3:initial_magmoms:R:1 pbc="T T T"
Si      -0.35230383       0.88702309       2.13296931       0.00000000
Si      -1.85070692      -0.93718000      -1.10821977       0.00000000
Si       1.05420736       1.76458169      -1.18098271       0.00000000
Si       1.60002010      -1.77916124      -0.08921775       0.00000000
Si       2.13607514       0.34236693      -2.67866215       0.00000000
Si      -0.66881854      -2.38927061      -2.51954064       0.00000000
Si       1.27384543       2.57052944       2.20392338       0.00000000
Si       2.23041053      -2.17981379       2.05863091       0.00000000
Si       3.43038081      -0.95384467      -1.25368729       0.00000000
Si      -3.15477030      -2.16904610       0.39371925       0.00000000
