10
Lattice="16.290000149 0.0 0.0 0.0 16.290000149 0.0 0.0 0.0 29.1751946751" Properties=species:S:1:pos:R:3:initial_magmoms:R:1 pbc="T T T"
Si       1.42335505       1.39215970       1.18039920       0.00000000
Si      -1.31988097       1.44101341      -1.27583126       0.00000000
Si       1.43365033      -1.32235705      -1.28251238       0.00000000
Si      -1.38153862      -1.33947784       1.33952071       0.00000000
Si       0.05584212      -2.66206295      -2.61476847       0.00000000
Si      -2.66916539       0.07916940      -2.62407536       0.00000000
Si      -2.56342700       0.11261277       2.75084158       0.00000000
Si       0.01239669      -2.62166375       2.70147715       0.00000000
Si       2.71766072       0.09594810       2.60537406       0.00000000
Si       0.06880896       2.80039764      -2.58941523       0.00000000
