10
Lattice="16.290000149 0.0 0.0 0.0 16.290000149 0.0 0.0 0.0 29.1751946751" Properties=species:S:1:pos:R:3:initial_magmoms:R:1 pbc="T T T"
Si       1.44052471      -0.28623159      -0.44325873       0.00000000
Si      -1.98456185       0.08405640       1.05409978       0.00000000
Si      -1.22476366       1.95805802      -0.22526168       0.00000000
Si       0.65331046       2.66603771       1.04951928       0.00000000
Si       1.08522352      -0.05180220      -2.80274425       0.00000000
Si      -0.59518774       1.62360802      -2.55425912       0.00000000
Si       1.89001469      -2.42098724       0.44124564       0.00000000
Si      -0.96011632      -1.25239150       2.67189350       0.00000000
Si       2.66515805       1.29920896       0.97115471       0.00000000
H        1.62056179       2.41129469      -1.42692960       0.00000000
