10
Lattice="16.290000149 0.0 0.0 0.0 16.290000149 0.0 0.0 0.0 29.1751946751" Properties=species:S:1:pos:R:3:initial_magmoms:R:1 pbc="T T T"
H       -0.88369993       0.84879046      -0.89153560       0.00000000
Si       1.03044025      -1.48885714      -1.46967126       0.00000000
Si      -1.39282759      -1.23212674       1.42669619       0.00000000
Si       1.89708455       1.29997459       0.63345183       0.00000000
Si       1.94483054       0.34513623      -2.64038429       0.00000000
Si       0.01427004       1.83835910      -2.96355792       0.00000000
H       -2.78627421       0.42867135      -2.13542002       0.00000000
Si       2.14881392       0.78768667       2.93077580       0.00000000
Si       0.00687438      -2.65665467       2.65004128       0.00000000
Si       2.53643447      -2.79744915      -0.17630570       0.00000000
