10
Lattice="16.290000149 0.0 0.0 0.0 16.290000149 0.0 0.0 0.0 29.1751946751" Properties=species:S:1:pos:R:3:initial_magmoms:R:1 pbc="T T T"
Si      -1.56551300       1.07559613      -1.36472808       0.00000000
Si       1.38963475      -1.47515725      -1.21587624       0.00000000
Si      -0.85090816      -1.47271375       1.64413892       0.00000000
Si       0.42134085       1.81480376       1.48303350       0.00000000
H        0.34383303      -1.10923498       2.53719163       0.00000000
Si      -1.89008636       1.99306523       2.07855757       0.00000000
Si      -0.25464528       2.56344329      -2.63784605       0.00000000
Si      -3.05554791       2.15132258       0.05937152       0.00000000
Si       2.70073541      -0.12008988      -2.60446963       0.00000000
Si      -0.11637576      -2.81465139      -2.51300539       0.00000000
