10
Lattice="16.290000149 0.0 0.0 0.0 16.290000149 0.0 0.0 0.0 29.1751946751" Properties=species:S:1:pos:R:3:initial_magmoms:R:1 pbc="T T T"
Si      -1.56794509       1.28013337      -1.12382850       0.00000000
Si      -1.39330000      -1.43527933       1.17619797       0.00000000
Si       1.56387259       1.12282084       1.46830002       0.00000000
Si       1.07145847      -1.10902321      -1.86779596       0.00000000
Si       2.09590400      -2.44547111      -0.25000224       0.00000000
Si       0.30859776      -3.03241611       1.19160248       0.00000000
Si       0.04927725       2.31049217      -2.51717745       0.00000000
Si       1.83125666       0.76497841      -3.14715742       0.00000000
Si      -2.53788428       2.73606842       0.38756329       0.00000000
Si      -2.98758603      -2.24849243      -0.38496669       0.00000000
