10
Lattice="16.290000149 0.0 0.0 0.0 16.290000149 0.0 0.0 0.0 29.1751946751" Properties=species:S:1:pos:R:3:initial_magmoms:R:1 pbc="T T T"
Si       0.08283465      -0.69276484      -2.22951878       0.00000000
Si      -0.98852608      -1.78713356       1.15267693       0.00000000
Si       1.83909215       0.88174513       1.18577035       0.00000000
Si      -1.63300735       1.73542259      -0.08443360       0.00000000
H        2.53434935      -0.94561822      -0.73636149       0.00000000
Si      -2.30386214      -0.46395549       2.55333135       0.00000000
Si       0.55179118       2.33069177       2.51400610       0.00000000
Si      -2.12066480      -0.31082949      -3.03428735       0.00000000
Si      -2.07212060       1.98334010      -2.36769250       0.00000000
Si       2.02033469       0.33682833      -3.13146992       0.00000000
