10
Lattice="16.290000149 0.0 0.0 0.0 16.290000149 0.0 0.0 0.0 29.1751946751" Properties=species:S:1:pos:R:3:initial_magmoms:R:1 pbc="T T T"
Si       0.68168764      -2.05199105      -0.76310639       0.00000000
Si      -0.61735843      -0.51627897       2.18207116       0.00000000
Si      -1.82091251       0.89191009      -1.14247145       0.00000000
Si       1.76984336       1.48208050      -0.33309320       0.00000000
H        1.37683081       0.25026327      -2.90599527       0.00000000
Si       0.15118749       1.52995681       3.06249101       0.00000000
Si      -2.86824549      -1.25022493      -1.53715348       0.00000000
Si       2.14399208       2.12869577       1.89233230       0.00000000
Si      -0.69928084       2.32775957      -2.69593386       0.00000000
Si       0.78703507       3.34153515      -1.22617508       0.00000000
