10
Lattice="16.290000149 0.0 0.0 0.0 16.290000149 0.0 0.0 0.0 29.1751946751" Properties=species:S:1:pos:R:3:initial_magmoms:R:1 pbc="T T T"
Si      -1.38748447      -1.27508347      -1.37728129       0.00000000
Si       1.20277216      -1.39709557       1.44145884       0.00000000
Si      -1.41933142       1.38175039       1.28376400       0.00000000
Si       1.87362695       0.80228251      -1.19630610       0.00000000
Si       2.51810822      -2.72027364       0.04080443       0.00000000
Si       2.63135630       0.00695583       2.68369487       0.00000000
Si       2.68351688       2.66173715      -0.01548911       0.00000000
Si       3.50663430      -0.93314008      -1.11187250       0.00000000
Si      -0.09881514       2.72279207       2.67768478       0.00000000
Si      -2.72333127      -2.68160281      -0.02451300       0.00000000
