10
Lattice="16.290000149 0.0 0.0 0.0 16.290000149 0.0 0.0 0.0 29.1751946751" Properties=species:S:1:pos:R:3:initial_magmoms:R:1 pbc="T T T"
Si       1.30326517      -1.38333052       1.37202188       0.00000000
Si      -1.37316556      -1.38344455      -1.30909099       0.00000000
Si      -1.32064660       1.37060803       1.37674826       0.00000000
Si       1.35536059       1.34843734      -1.37342229       0.00000000
Si       2.66790944      -0.00245979       2.69184934       0.00000000
Si      -2.68095935       2.69622308      -0.01490852       0.00000000
Si      -0.00110772      -2.72236202      -2.67469432       0.00000000
Si      -2.69623937      -0.01793529      -2.70109787       0.00000000
Si      -2.65256588       0.01622484       2.75171684       0.00000000
Si       2.69746601       2.71417466      -0.02342768       0.00000000
