10
Lattice="16.290000149 0.0 0.0 0.0 16.290000149 0.0 0.0 0.0 29.1751946751" Properties=species:S:1:pos:R:3:initial_magmoms:R:1 pbc="T T T"
Si      -1.45808533      -1.29911122       1.30261409       0.00000000
Si       1.37210671      -1.38538306      -1.31101655       0.00000000
Si      -1.36114354       1.32629923      -1.38270000       0.00000000
Si       1.38662110       1.34781832       1.33946236       0.00000000
Si      -0.05185107       2.71942004       2.57158918       0.00000000
Si      -0.21649410      -2.68767083       2.67536535       0.00000000
Si       2.72499122       2.68258835      -0.03495188       0.00000000
Si       0.01272249      -2.73096965      -2.68015008       0.00000000
Si       2.72474687      -0.03860730      -2.68721048       0.00000000
Si      -0.00840564       2.67902084      -2.74465644       0.00000000
