10
Lattice="16.290000149 0.0 0.0 0.0 16.290000149 0.0 0.0 0.0 29.1751946751" Properties=species:S:1:pos:R:3:initial_magmoms:R:1 pbc="T T T"
Si       1.37503891       1.35728281      -1.33111826       0.00000000
Si       1.36694278      -1.34079733       1.35717171       0.00000000
Si      -1.31740489       1.37015191       1.38252495       0.00000000
Si      -1.36876726      -1.36129015      -1.35098656       0.00000000
Si      -0.00869886       2.71631028      -2.65228777       0.00000000
Si      -0.02174715      -2.70018155       2.67075567       0.00000000
Si       2.72476316      -0.01974348      -2.67953740       0.00000000
Si      -2.67962357       0.01762578       2.72831833       0.00000000
Si       2.71865441      -2.71077005       0.00586421       0.00000000
Si      -2.71155197       2.71779919       0.05266123       0.00000000
