10
Lattice="16.290000149 0.0 0.0 0.0 16.290000149 0.0 0.0 0.0 29.1751946751" Properties=species:S:1:pos:R:3:initial_magmoms:R:1 pbc="T T T"
Si      -1.39297420      -1.34325712      -1.32913434       0.00000000
Si      -1.35930277       1.35527914       1.35378738       0.00000000
Si       1.33029028      -1.36976095       1.37243033       0.00000000
Si       1.36008469       1.34475580      -1.37213858       0.00000000
Si      -0.03679911      -2.73835717      -2.61832785       0.00000000
Si       2.70712109       2.70128927      -0.00936524       0.00000000
Si      -2.70226016       2.71179632      -0.01111575       0.00000000
Si       2.68964192      -2.72730278       0.03273457       0.00000000
Si       2.70371648      -0.02327841       2.71661908       0.00000000
Si      -0.01068624       2.71634123       2.70451137       0.00000000
