10
Lattice="16.290000149 0.0 0.0 0.0 16.290000149 0.0 0.0 0.0 29.1751946751" Properties=species:S:1:pos:R:3:initial_magmoms:R:1 pbc="T T T"
Si       2.07166448      -0.72403023       0.84479694       0.00000000
Si       0.74067373       0.58803154      -2.15978131       0.00000000
Si      -1.27465342      -2.00000803      -0.10418462       0.00000000
Si      -0.59440582       1.51553691       1.76670391       0.00000000
H        0.68898556       1.55611530       2.58474720       0.00000000
H        0.07708428       1.85811561      -2.63755430       0.00000000
Si      -0.06017526       3.52557631       0.08402456       0.00000000
Si       1.29823156      -2.22578743       2.55735169       0.00000000
Si       3.12122919      -1.39530693      -1.22562075       0.00000000
Si      -1.95165116       0.12572296       3.10073969       0.00000000
