10
Lattice="10.86 0.0 0.0 0.0 10.86 0.0 0.0 0.0 10.86" Properties=species:S:1:pos:R:3:initial_magmoms:R:1 pbc="T T T"
Si      -1.43877624      -1.19654394      -1.20676320       0.00000000
Si       1.27622376      -1.19654394       1.50823680       0.00000000
Si       1.27622376       1.51845606      -1.20676320       0.00000000
Si      -0.08127624      -2.55404394      -2.56426320       0.00000000
Si       2.63372376      -2.55404394       0.15073680       0.00000000
Si       2.63372376       0.16095606      -2.56426320       0.00000000
Si      -2.79627624      -2.55404394       0.15073680       0.00000000
Si      -2.79627624       0.16095606      -2.56426320       0.00000000
Si      -0.08127624      -2.55404394       2.86573680       0.00000000
Si      -0.08127624       2.87595606      -2.56426320       0.00000000
