10
Lattice="10.86 0.0 0.0 0.0 10.86 0.0 0.0 0.0 10.86" Properties=species:S:1:pos:R:3:initial_magmoms:R:1 pbc="T T T"
Si       1.28197956       1.14709836      -1.41737118       0.00000000
Si      -1.43302044       1.14709836       1.29762882       0.00000000
Si       1.28197956      -1.56790164       1.29762882       0.00000000
Si       2.63947956       2.50459836      -0.05987118       0.00000000
Si      -0.07552044       2.50459836       2.65512882       0.00000000
Si      -0.07552044       2.50459836      -2.77487118       0.00000000
Si       2.63947956      -0.21040164       2.65512882       0.00000000
Si      -2.79052044       2.50459836      -0.05987118       0.00000000
Si       2.63947956      -0.21040164      -2.77487118       0.00000000
Si      -2.79052044      -0.21040164       2.65512882       0.00000000
