10
Lattice="10.86 0.0 0.0 0.0 10.86 0.0 0.0 0.0 10.86" Properties=species:S:1:pos:R:3:initial_magmoms:R:1 pbc="T T T"
Si       1.49224002      -1.08542442      -1.39177416       0.00000000
Si      -1.06189080      -1.61899794       1.34832330       0.00000000
Si      -1.22275998       1.62957558      -1.39177416       0.00000000
Si       1.49224002       1.62957558       1.32322584       0.00000000
Si      -2.32466988      -0.01988466       2.46429690       0.00000000
Si       0.13474002      -2.44292442      -2.74927416       0.00000000
Si      -2.58025998       0.27207558      -2.74927416       0.00000000
Si      -2.79690612      -2.54988456      -0.04313592       0.00000000
Si       3.25503522      -2.06000082      -0.43506246       0.00000000
Si      -2.58025998       2.98707558      -0.03427416       0.00000000
