10
Lattice="10.86 0.0 0.0 0.0 10.86 0.0 0.0 0.0 10.86" Properties=species:S:1:pos:R:3:initial_magmoms:R:1 pbc="T T T"
Si      -0.49144758      -1.39687836      -1.93053876       0.00000000
Si      -1.61869386       0.00211770       1.81733412       0.00000000
Si       2.07760488      -1.53773256       0.44721480       0.00000000
Si      -1.86545478       1.96471518      -0.73829538       0.00000000
Si       0.68867604      -2.93171130       1.95160716       0.00000000
Si      -0.56290638      -1.48766796       3.23183826       0.00000000
Si      -2.02632396      -2.93171130      -0.76339284       0.00000000
Si       2.45147124       1.52371230      -2.52168114       0.00000000
Si       3.40367604      -0.21671130       1.95160716       0.00000000
Si       1.97906124       1.21881780       3.19227528       0.00000000
