10
Lattice="10.86 0.0 0.0 0.0 10.86 0.0 0.0 0.0 10.86" Properties=species:S:1:pos:R:3:initial_magmoms:R:1 pbc="T T T"
Si      -1.43022942      -1.25608932       1.45257930       0.00000000
Si      -1.43022942       1.45891068      -1.26242070       0.00000000
Si       1.28477058       1.45891068       1.45257930       0.00000000
Si       2.57515578      -2.53556022      -0.02175258       0.00000000
Si      -2.52232188      -2.62614348      -0.04536222       0.00000000
Si       2.77729296       0.05267100      -2.52943518       0.00000000
Si      -2.53213932      -0.19054956      -2.83634964       0.00000000
Si      -0.07272942      -2.61358932       2.81007930       0.00000000
Si      -0.07272942       2.81641068      -2.61992070       0.00000000
Si       2.64227058       0.10141068       2.81007930       0.00000000
