10
Lattice="10.86 0.0 0.0 0.0 10.86 0.0 0.0 0.0 10.86" Properties=species:S:1:pos:R:3:initial_magmoms:R:1 pbc="T T T"
Si      -1.39375068      -1.21801416       1.26157362       0.00000000
Si       1.32124932      -1.21801416      -1.45342638       0.00000000
Si       1.32124932       1.49698584       1.26157362       0.00000000
Si      -0.03625068      -2.57551416       2.61907362       0.00000000
Si      -0.02906136      -2.50111230      -2.71632492       0.00000000
Si       2.67874932      -2.57551416      -0.09592638       0.00000000
Si       2.67874932       0.13948584       2.61907362       0.00000000
Si      -2.75125068       0.13948584       2.61907362       0.00000000
Si      -3.04699020      -2.34787770      -0.16233528       0.00000000
Si      -0.03625068       2.85448584       2.61907362       0.00000000
