10
Lattice="10.86 0.0 0.0 0.0 10.86 0.0 0.0 0.0 10.86" Properties=species:S:1:pos:R:3:initial_magmoms:R:1 pbc="T T T"
Si       1.19438280       1.24677144       1.43603952       0.00000000
Si       1.19438280      -1.46822856      -1.27896048       0.00000000
Si      -1.52061720       1.24677144      -1.27896048       0.00000000
Si       2.55188280       2.60427144       0.07853952       0.00000000
Si       2.55188280      -0.11072856      -2.63646048       0.00000000
Si      -0.16311720       2.60427144      -2.63646048       0.00000000
Si       2.55188280      -0.11072856       2.79353952       0.00000000
Si       2.55188280      -2.82572856       0.07853952       0.00000000
Si      -2.93366610       2.49523704       0.00477840       0.00000000
Si       0.02738892       2.95465848       2.48844954       0.00000000
