10
Lattice="10.86 0.0 0.0 0.0 10.86 0.0 0.0 0.0 10.86" Properties=species:S:1:pos:R:3:initial_magmoms:R:1 pbc="T T T"
Si       1.13913798      -1.28767020      -1.41448242       0.00000000
Si       1.13040654       1.37850324       1.48840644       0.00000000
Si      -1.58459346       1.37850324      -1.22659356       0.00000000
Si      -1.58459346      -1.33649676       1.48840644       0.00000000
Si       2.42171484      -2.63435364       0.09717528       0.00000000
Si       2.55095970       2.64727704       0.25224522       0.00000000
Si       2.48790654       0.02100324       2.84590644       0.00000000
Si      -0.39854028       2.73347286      -2.59621332       0.00000000
Si      -2.94209346       0.02100324      -2.58409356       0.00000000
Si      -0.22709346      -2.69399676       2.84590644       0.00000000
