10
Lattice="10.86 0.0 0.0 0.0 10.86 0.0 0.0 0.0 10.86" Properties=species:S:1:pos:R:3:initial_magmoms:R:1 pbc="T T T"
Si      -1.42055316      -1.26877380       1.23616122       0.00000000
Si       1.29444684       1.44622620       1.23616122       0.00000000
Si      -1.42055316       1.44622620      -1.47883878       0.00000000
Si      -2.55095970      -2.64727704      -0.25224522       0.00000000
Si      -0.06305316      -2.62627380       2.59366122       0.00000000
Si       2.65194684       0.08872620       2.59366122       0.00000000
Si       2.64319368      -2.62834806      -0.13900800       0.00000000
Si      -2.77805316       0.08872620       2.59366122       0.00000000
Si      -0.06305316       2.80372620       2.59366122       0.00000000
Si       2.65194684       2.80372620      -0.12133878       0.00000000
