10
Lattice="16.28999089631971 0.0 0.0 0.0 16.28999089631971 0.0 0.0 0.0 34.385447050020396" Properties=species:S:1:pos:R:3:initial_magmoms:R:1 pbc="T T T"
Si       1.28835655      -1.35008343       1.36929804       0.00000000
Si      -1.32572322      -1.36409117      -1.35939502       0.00000000
Si       1.38810022       1.34835425      -1.35451229       0.00000000
Si      -1.38169566       1.37976137       1.44835022       0.00000000
Si       2.07335536       0.49770674       2.74977135       0.00000000
Si       0.42327610       2.38584806       2.54975109       0.00000000
Si      -2.67833079       2.70821087       0.00890584       0.00000000
Si      -2.68430922      -0.00989617      -2.71514519       0.00000000
Si      -2.68357617      -2.72842092       0.01096896       0.00000000
Si       0.02925032       2.70623978      -2.71559220       0.00000000
