10
Lattice="16.28999089631971 0.0 0.0 0.0 16.28999089631971 0.0 0.0 0.0 34.385447050020396" Properties=species:S:1:pos:R:3:initial_magmoms:R:1 pbc="T T T"
Si       1.34719929       1.36139734       1.36853812       0.00000000
Si      -1.37134107      -1.35138191       1.36503080       0.00000000
Si      -1.10840418       1.41858502      -1.54484616       0.00000000
Si       1.44647055      -1.38440174      -1.28913176       0.00000000
Si      -2.70365130       2.71340381      -0.01961003       0.00000000
Si      -2.16008658      -0.08079449      -3.16238117       0.00000000
Si       2.70029556       2.72107640      -0.00075648       0.00000000
Si       2.70474273       0.00427533       2.72721105       0.00000000
Si      -0.00832419      -2.71171094       2.72697035       0.00000000
Si      -0.01026270       2.71827452       2.72676404       0.00000000
