10
Lattice="16.28999089631971 0.0 0.0 0.0 16.28999089631971 0.0 0.0 0.0 34.385447050020396" Properties=species:S:1:pos:R:3:initial_magmoms:R:1 pbc="T T T"
Si      -1.35321030      -1.84599909      -0.18863867       0.00000000
Si      -1.10099223       2.01477978      -0.38405127       0.00000000
Si       1.64348181      -0.07967439       1.75063286       0.00000000
Si      -0.71513100       0.15530886      -2.29770563       0.00000000
Si      -3.39007932      -1.31258304       0.90199955       0.00000000
Si       0.18161721      -0.18573858       3.78071640       0.00000000
Si      -0.21335013      -3.72904653       0.78512335       0.00000000
Si       2.03045076      -3.34036550       0.10322517       0.00000000
Si      -1.15585695       3.55726359       1.44817830       0.00000000
Si       0.71048835       1.48802634      -3.66624718       0.00000000
