10
Lattice="16.28999089631971 0.0 0.0 0.0 16.28999089631971 0.0 0.0 0.0 34.385447050020396" Properties=species:S:1:pos:R:3:initial_magmoms:R:1 pbc="T T T"
Si      -1.30246695       1.41542181      -1.31933596       0.00000000
Si       1.20130605       1.31984838       1.52633646       0.00000000
Si       1.59988977      -1.57758876      -0.69953793       0.00000000
Si      -1.83708846      -1.04373288       1.07488968       0.00000000
Si      -1.72742418       2.95176429       0.52035526       0.00000000
Si       0.29190051      -3.51129321      -0.36675538       0.00000000
Si       3.15872874      -1.21881780       1.06911292       0.00000000
Si      -0.52372350       2.45891034       2.54655325       0.00000000
Si      -3.32164503       0.06103863      -1.65421601       0.00000000
Si       0.26241561       2.16541341      -3.03207603       0.00000000
