10
Lattice="16.28999089631971 0.0 0.0 0.0 16.28999089631971 0.0 0.0 0.0 34.385447050020396" Properties=species:S:1:pos:R:3:initial_magmoms:R:1 pbc="T T T"
Si       1.63652598      -1.48582719      -0.91190257       0.00000000
Si      -1.07501620      -0.89277345       1.95130644       0.00000000
Si       0.23543937       2.13646608      -1.21597324       0.00000000
Si       1.71999594       1.03169457       1.51313244       0.00000000
Si      -2.35324200      -0.77913441      -1.33463749       0.00000000
Si       1.58527764      -0.62900577      -3.14001201       0.00000000
Si       0.20509110       2.46887982       2.59912862       0.00000000
Si      -1.61648602       1.02659580       3.16604181       0.00000000
Si       0.39511395       1.45841112      -3.41994409       0.00000000
Si       0.59557869      -1.72631646       3.33150467       0.00000000
