10
Lattice="16.28999089631971 0.0 0.0 0.0 16.28999089631971 0.0 0.0 0.0 34.385447050020396" Properties=species:S:1:pos:R:3:initial_magmoms:R:1 pbc="T T T"
Si       1.25876088      -1.88840196       0.70538345       0.00000000
Si       1.33116993       1.37554389      -1.42991961       0.00000000
Si      -1.73270214       1.18552104       1.20576076       0.00000000
Si      -1.49709987      -0.68991408      -1.81558700       0.00000000
Si       0.28935927       1.51324326       2.15325228       0.00000000
Si       0.01780497      -2.12709933      -2.90158319       0.00000000
Si       0.76577661      -3.40649964      -1.08805931       0.00000000
Si       3.46700070      -0.98650611       1.02719703       0.00000000
Si      -3.33422091      -0.43805439       1.90698357       0.00000000
Si      -2.10331593       1.26405513      -3.04875298       0.00000000
