10
Lattice="16.28999089631971 0.0 0.0 0.0 16.28999089631971 0.0 0.0 0.0 34.385447050020396" Properties=species:S:1:pos:R:3:initial_magmoms:R:1 pbc="T T T"
Si      -1.35682668       1.35426915       1.36039220       0.00000000
Si       1.35646830      -1.36397799       1.36107991       0.00000000
Si       1.34799750       1.35216774      -1.39442694       0.00000000
Si      -1.35345465      -1.37849238      -1.38374681       0.00000000
Si       2.71163340       2.71412577       0.00106595       0.00000000
Si       0.00035838       2.71288773       2.71854935       0.00000000
Si      -2.71744078       2.71474479      -0.00261330       0.00000000
Si       2.71516833      -0.00309510       2.71947776       0.00000000
Si      -2.71607080      -0.00259011       2.71944337       0.00000000
Si       2.71699281      -2.71867068       0.00495151       0.00000000
