10
Lattice="16.28999089631971 0.0 0.0 0.0 16.28999089631971 0.0 0.0 0.0 34.385447050020396" Properties=species:S:1:pos:R:3:initial_magmoms:R:1 pbc="T T T"
Si      -1.35272160      -1.35454608       1.33113017       0.00000000
Si       1.35782037      -1.35677781      -1.35475299       0.00000000
Si      -1.35721764       1.35668007      -1.35557824       0.00000000
Si       1.35373158       1.36187658       1.37256466       0.00000000
Si      -0.15467355       2.55445119       2.79835802       0.00000000
Si      -0.00892692      -2.59291188       2.77807059       0.00000000
Si      -2.71311579      -2.71272483       0.00405749       0.00000000
Si       2.71435383       0.00047241      -2.71301329       0.00000000
Si      -0.00008145      -2.71471221      -2.71277259       0.00000000
Si      -2.71476108      -0.00011403      -2.71280698       0.00000000
