10
Lattice="16.28999089631971 0.0 0.0 0.0 16.28999089631971 0.0 0.0 0.0 34.385447050020396" Properties=species:S:1:pos:R:3:initial_magmoms:R:1 pbc="T T T"
Si       1.80568134       1.49786550       0.03046552       0.00000000
Si       1.19519730      -1.93813533      -0.63025121       0.00000000
Si      -2.13789960       0.18037917      -0.99514978       0.00000000
Si      -0.37102104      -0.65733408       2.32913394       0.00000000
Si      -1.68026463      -2.47498857       1.55253819       0.00000000
Si       0.87263901       2.96385147       1.52427333       0.00000000
Si       1.96744104      -0.36139365       2.89130193       0.00000000
Si      -2.88396531      -1.98213462      -0.47365980       0.00000000
Si      -3.06773280       1.78082280       0.49907066       0.00000000
Si       3.41979228       0.20075796       1.06928484       0.00000000
