10
Lattice="16.28999089631971 0.0 0.0 0.0 16.28999089631971 0.0 0.0 0.0 34.385447050020396" Properties=species:S:1:pos:R:3:initial_magmoms:R:1 pbc="T T T"
Si      -0.74606571      -2.16251379       0.52148998       0.00000000
Si       2.13789960      -0.18037917       0.99514978       0.00000000
Si      -0.92983320       1.60044363       1.49422044       0.00000000
Si      -0.28808865       0.52341399      -2.34687684       0.00000000
Si       0.88255962       3.16618956       1.51918429       0.00000000
Si       0.45763497      -2.65536774       2.54768797       0.00000000
Si      -2.94036129       2.23998903       0.35310435       0.00000000
Si       0.94825719       2.48261229      -2.63158850       0.00000000
Si       1.76687856      -0.83771325       3.32428372       0.00000000
Si      -0.32110848      -3.69885627      -1.31820123       0.00000000
