10
Lattice="16.28999089631971 0.0 0.0 0.0 16.28999089631971 0.0 0.0 0.0 34.385447050020396" Properties=species:S:1:pos:R:3:initial_magmoms:R:1 pbc="T T T"
Si      -0.58163445       0.47232855      -2.25998477       0.00000000
Si      -1.82270439      -0.85182039       1.28837326       0.00000000
Si       0.86447772       1.90865043       1.33734504       0.00000000
Si       1.62789228      -1.92824730      -0.08799241       0.00000000
Si       2.10825180       0.52095420       2.73232558       0.00000000
Si      -0.60701427      -2.19626667       2.73821925       0.00000000
Si       3.41308080      -0.83406429       1.29421535       0.00000000
Si      -2.80833084      -2.50561377      -0.13957061       0.00000000
Si       0.41914170      -1.46991186      -3.44490794       0.00000000
Si       2.72163546       2.78899461       0.14504309       0.00000000
