10
Lattice="16.28999089631971 0.0 0.0 0.0 16.28999089631971 0.0 0.0 0.0 34.385447050020396" Properties=species:S:1:pos:R:3:initial_magmoms:R:1 pbc="T T T"
Si      -0.44564553       2.02401621       1.04150139       0.00000000
Si       2.12797899      -0.38271726       1.00023883       0.00000000
Si      -1.81239282      -1.56574593      -0.02496385       0.00000000
Si      -0.23825754       0.78464043      -2.30179750       0.00000000
Si      -2.41321689       2.41017066      -0.07375683       0.00000000
Si       3.06102132      -1.84870323      -0.49356898       0.00000000
Si       1.25533998      -3.34656873      -0.52403451       0.00000000
Si      -0.88255962      -3.16618956      -1.51918429       0.00000000
Si       3.20650731       1.64924847       0.64362716       0.00000000
Si       3.03816645       1.56823830      -1.79395855       0.00000000
