10
Lattice="16.28999089631971 0.0 0.0 0.0 16.28999089631971 0.0 0.0 0.0 34.385447050020396" Properties=species:S:1:pos:R:3:initial_magmoms:R:1 pbc="T T T"
Si       1.35716877       1.35801585       1.35671296       0.00000000
Si       1.35746199      -1.35687718      -1.35822592       0.00000000
Si      -1.35770634      -1.35794092       1.35746944       0.00000000
Si      -1.35519768       1.35672894      -1.36242094       0.00000000
Si      -2.71590138      -2.71250573       0.00206313       0.00000000
Si      -0.00026064      -2.71436587       2.71449186       0.00000000
Si       2.71500543      -2.71399919       0.00044701       0.00000000
Si       2.71461447       2.71507059      -0.00144419       0.00000000
Si       2.71498914       0.00074934       2.71476695       0.00000000
Si      -0.00030951       2.71577106       2.71418239       0.00000000
