10
Lattice="16.28999089631971 0.0 0.0 0.0 16.28999089631971 0.0 0.0 0.0 34.385447050020396" Properties=species:S:1:pos:R:3:initial_magmoms:R:1 pbc="T T T"
Si       1.35690813       1.35705196       1.35650664       0.00000000
Si      -1.35765747      -1.35744915       1.35605963       0.00000000
Si      -1.35754344       1.35712201      -1.35867293       0.00000000
Si       1.35834165      -1.36013700      -1.35918871       0.00000000
Si       2.71410948       0.00005627       2.71349468       0.00000000
Si      -0.00084708      -2.71456905       2.71359784       0.00000000
Si      -2.71500543       2.71399919      -0.00044701       0.00000000
Si      -2.71306692      -2.71598628      -0.00024070       0.00000000
Si      -0.00001629       2.71474853       2.71431994       0.00000000
Si      -2.71526607      -0.00036668       2.71404485       0.00000000
