10
Lattice="16.28999089631971 0.0 0.0 0.0 16.28999089631971 0.0 0.0 0.0 34.385447050020396" Properties=species:S:1:pos:R:3:initial_magmoms:R:1 pbc="T T T"
Si       0.80130510      -2.11364772       0.52400012       0.00000000
Si       1.77945444       1.06354478       1.16133474       0.00000000
Si      -2.24380089      -0.38868103       0.68189818       0.00000000
Si       0.35359074       0.00549299      -2.41138398       0.00000000
Si      -0.38696895       3.26069111       1.64740769       0.00000000
Si      -3.38366106       1.49436641      -0.29186384       0.00000000
Si       2.93876487      -2.24869182      -0.36290421       0.00000000
Si      -2.73134430      -2.56357752      -0.21549372       0.00000000
Si       2.13741090      -1.73146803      -2.57237673       0.00000000
Si      -0.71705322      -3.75828612      -0.28873476       0.00000000
