10
Lattice="16.28999089631971 0.0 0.0 0.0 16.28999089631971 0.0 0.0 0.0 34.385447050020396" Properties=species:S:1:pos:R:3:initial_magmoms:R:1 pbc="T T T"
Si      -0.74598426      -1.83105531      -1.25850807       0.00000000
Si      -1.54324944      -0.04258206       1.78715022       0.00000000
Si      -0.15081282       1.98894058      -1.30644141       0.00000000
Si       2.41712649       0.18152436      -0.06629518       0.00000000
Si      -0.15534144       1.45308103       3.04445480       0.00000000
Si       0.98073945      -1.71063963      -2.78663257       0.00000000
Si       2.53161261       0.00471270      -2.39405370       0.00000000
Si      -1.81024254       1.45687660      -2.84574119       0.00000000
Si      -3.48120558       0.91367026       0.76480154       0.00000000
Si      -3.47613939       0.43536165      -1.61185312       0.00000000
