10
Lattice="16.28999089631971 0.0 0.0 0.0 16.28999089631971 0.0 0.0 0.0 34.385447050020396" Properties=species:S:1:pos:R:3:initial_magmoms:R:1 pbc="T T T"
Si      -1.08067860       0.73503738      -1.86836870       0.00000000
Si      -0.46138167      -0.98486082       2.01000243       0.00000000
Si       1.94196348       1.22872212       0.03503879       0.00000000
Si       2.48591916      -1.16058105      -0.26273935       0.00000000
Si       0.83652408      -2.70595308       0.61484652       0.00000000
Si      -0.19453518       2.99033901      -1.85581800       0.00000000
Si       0.57200706       0.59567643       3.49583079       0.00000000
Si       2.44213164       1.47232278       2.32590175       0.00000000
Si       2.06006598       2.35351404      -2.07763864       0.00000000
Si      -3.39079608       0.22261914      -1.66920807       0.00000000
