10
Lattice="16.28999089631971 0.0 0.0 0.0 16.28999089631971 0.0 0.0 0.0 34.385447050020396" Properties=species:S:1:pos:R:3:initial_magmoms:R:1 pbc="T T T"
Si       1.35389448      -1.35267273      -1.36094237       0.00000000
Si       1.35757602       1.35523026       1.36035782       0.00000000
Si      -1.36164852       1.36003581      -1.35918871       0.00000000
Si      -1.35591444      -1.36958175       1.37070784       0.00000000
Si      -2.51520858       0.14630049       2.79908011       0.00000000
Si       2.70848943      -2.71340901      -0.00195997       0.00000000
Si       2.70858717       2.71889874      -0.00367924       0.00000000
Si       2.71037907       0.00239463      -2.71738024       0.00000000
Si      -0.00400734      -2.71251306      -2.71686446       0.00000000
Si      -2.72305269      -2.71067229       0.00061894       0.00000000
