10
Lattice="16.28999089631971 0.0 0.0 0.0 16.28999089631971 0.0 0.0 0.0 34.385447050020396" Properties=species:S:1:pos:R:3:initial_magmoms:R:1 pbc="T T T"
Si      -1.35553977       1.35933534      -1.35953257       0.00000000
Si       1.35925389      -1.35630540      -1.35936064       0.00000000
Si      -1.34750880      -1.34861652       1.38680024       0.00000000
Si       1.35599589       1.36089918       1.39047948       0.00000000
Si       0.20569383      -2.57004072       2.79890818       0.00000000
Si      -2.71336014       2.71611315      -0.00477958       0.00000000
Si      -2.71288773      -2.71679733      -0.00096279       0.00000000
Si      -2.71344159       0.00140094      -2.71755217       0.00000000
Si       0.00159642      -2.71383255      -2.71762094       0.00000000
Si       2.71726974       2.71469592       0.00343855       0.00000000
