10
Lattice="16.28999089631971 0.0 0.0 0.0 16.28999089631971 0.0 0.0 0.0 34.385447050020396" Properties=species:S:1:pos:R:3:initial_magmoms:R:1 pbc="T T T"
Si      -0.79342074      -1.95786252       1.06233898       0.00000000
Si       1.94434182       0.41425470       1.33773218       0.00000000
Si      -1.01002887       2.16966510       0.14875153       0.00000000
Si       0.78811020       0.04342914      -2.38868957       0.00000000
Si       3.51730422      -0.52522218      -0.09817051       0.00000000
Si      -2.85270480      -2.18183373      -0.08802679       0.00000000
Si      -0.76338198      -1.35148356       3.30781308       0.00000000
Si       3.06268290       0.56537703      -2.07963300       0.00000000
Si      -0.08244369       3.23358129       2.00305657       0.00000000
Si       1.58421879      -0.84895335       3.38335795       0.00000000
