10
Lattice="16.28999089631971 0.0 0.0 0.0 16.28999089631971 0.0 0.0 0.0 34.385447050020396" Properties=species:S:1:pos:R:3:initial_magmoms:R:1 pbc="T T T"
Si       0.83799018       1.78295679       1.28439310       0.00000000
Si      -1.85715774      -0.88034418       1.19230194       0.00000000
Si      -1.26012924       1.23448878      -1.60752575       0.00000000
Si       1.65193632      -1.94571018      -0.24579251       0.00000000
Si       2.12915187       0.42310017       2.60049338       0.00000000
Si      -0.61338366      -2.26804041       2.58728249       0.00000000
Si       3.42215433      -0.88231527       1.02965181       0.00000000
Si       2.47665015       2.84539059      -0.04571582       0.00000000
Si      -2.11664115      -0.40143447      -3.17196130       0.00000000
Si       0.69144534      -3.62305890       1.14917225       0.00000000
