10
Lattice="16.28999089631971 0.0 0.0 0.0 16.28999089631971 0.0 0.0 0.0 34.385447050020396" Properties=species:S:1:pos:R:3:initial_magmoms:R:1 pbc="T T T"
Si       1.32548472      -1.32820515      -1.44938179       0.00000000
Si       1.84955031       0.80079101       1.33962338       0.00000000
Si      -1.64672352      -1.28171349       1.24757349       0.00000000
Si      -1.39092165       1.41524329      -1.41987906       0.00000000
Si       2.62404207      -2.77747758       0.01059072       0.00000000
Si       2.70021411       2.71155914       0.03675806       0.00000000
Si      -0.02867040      -2.66282856      -2.82057103       0.00000000
Si       2.68597665       0.05155785      -2.81713248       0.00000000
Si      -2.73939156       0.04979831      -2.81262798       0.00000000
Si       3.63337047      -0.93617001       1.17863063       0.00000000
