10
Lattice="16.28999089631971 0.0 0.0 0.0 16.28999089631971 0.0 0.0 0.0 34.385447050020396" Properties=species:S:1:pos:R:3:initial_magmoms:R:1 pbc="T T T"
Si      -0.07045425      -1.14906402       1.96547325       0.00000000
Si      -0.92758518      -1.06391619      -1.85430504       0.00000000
Si      -0.09330912       2.26787751       0.66508369       0.00000000
Si       1.81965816       1.52438562      -0.64654992       0.00000000
Si       2.97906633      -0.58135752      -0.76260087       0.00000000
Si      -3.06577800       0.01606194      -1.69173055       0.00000000
Si       2.02678551      -2.81932659      -0.66532439       0.00000000
Si      -1.00349658       0.31692195       3.45928106       0.00000000
Si       1.21735170       1.86329907      -2.91203637       0.00000000
Si      -3.36973311       1.48427964       0.15724474       0.00000000
