10
Lattice="16.28999089631971 0.0 0.0 0.0 16.28999089631971 0.0 0.0 0.0 34.385447050020396" Properties=species:S:1:pos:R:3:initial_magmoms:R:1 pbc="T T T"
Si      -0.81648738       0.85472164      -1.99373811       0.00000000
Si      -1.47360969      -0.97610494       1.54050327       0.00000000
Si       1.13683856      -2.07328273      -0.13441279       0.00000000
Si       1.62618413       1.51647031       0.83903976       0.00000000
Si      -2.17745172       2.20245850       0.62278957       0.00000000
Si      -2.59320510      -2.57273413       0.18138333       0.00000000
Si       3.68845415       0.42643962       0.31050076       0.00000000
Si       1.03381227       1.67681278      -3.22019892       0.00000000
Si       1.39897121       1.55361151       3.14843645       0.00000000
Si      -1.62637731      -1.03315757      -3.26304321       0.00000000
