10
Lattice="16.28999089631971 0.0 0.0 0.0 16.28999089631971 0.0 0.0 0.0 34.385447050020396" Properties=species:S:1:pos:R:3:initial_magmoms:R:1 pbc="T T T"
Si      -1.12497111       0.57915837      -2.08468766       0.00000000
Si      -1.20104541      -0.69370965       2.03947078       0.00000000
Si       1.66646115      -1.81444536      -0.30448330       0.00000000
Si       0.69512688       2.37682503       0.57746952       0.00000000
Si      -3.11161806      -1.03307922      -0.37672717       0.00000000
Si      -3.26484180       0.43588782       1.48393918       0.00000000
Si      -0.20688300       0.81505386       3.61418759       0.00000000
Si       0.58285620       1.46768013      -3.55023062       0.00000000
Si      -0.54086058       2.94283737       2.53809442       0.00000000
Si       2.76300296       2.31476013       1.60666091       0.00000000
