10
Lattice="16.28999089631971 0.0 0.0 0.0 16.28999089631971 0.0 0.0 0.0 34.385447050020396" Properties=species:S:1:pos:R:3:initial_magmoms:R:1 pbc="T T T"
Si      -1.35667772       1.35951453       1.35379019       0.00000000
Si      -1.35552237      -1.35791811      -1.35774452       0.00000000
Si       1.35945263       1.35702216      -1.35719435       0.00000000
Si       1.35884990      -1.35788553       1.36107991       0.00000000
Si      -0.03372193       2.71404432       2.69919033       0.00000000
Si      -0.02925032      -2.70623978       2.71559220       0.00000000
Si      -2.71297311       0.00050499      -2.71414801       0.00000000
Si      -2.71305456       2.71474479      -0.00061894       0.00000000
Si       0.00171045       2.71482624      -2.71328837       0.00000000
Si      -2.71355955      -2.71613596       0.00044701       0.00000000
