10
Lattice="16.28999089631971 0.0 0.0 0.0 16.28999089631971 0.0 0.0 0.0 34.385447050020396" Properties=species:S:1:pos:R:3:initial_magmoms:R:1 pbc="T T T"
Si      -1.35516510       1.35454608      -1.35619718       0.00000000
Si       1.35984033      -1.35891180      -1.35681611       0.00000000
Si      -1.35101115      -1.36366848       1.36403706       0.00000000
Si       1.37145510       1.35739683       1.35117690       0.00000000
Si       2.56534920      -0.13688487       2.72666432       0.00000000
Si      -2.59434540       0.04670343       2.81995209       0.00000000
Si      -2.71221984       2.71213839       0.00728972       0.00000000
Si      -2.71254564      -0.00169416      -2.71390731       0.00000000
Si       0.00188964       2.71332756      -2.71380415       0.00000000
Si      -2.70858717      -2.71889874       0.00367924       0.00000000
