10
Lattice="16.28999089631971 0.0 0.0 0.0 16.28999089631971 0.0 0.0 0.0 34.385447050020396" Properties=species:S:1:pos:R:3:initial_magmoms:R:1 pbc="T T T"
Si      -2.16176445      -0.18502182      -0.90794824       0.00000000
Si       1.23598746      -0.56601234      -1.96062490       0.00000000
Si       0.33397758      -2.12778351       1.07609317       0.00000000
Si       0.80891253       1.93512168       1.19936506       0.00000000
Si       3.30386354      -0.62807724      -0.93143351       0.00000000
Si       2.71996641      -2.13993585       0.88896746       0.00000000
Si      -0.66018483      -3.63654702      -0.49862365       0.00000000
Si      -3.73472685       0.75445506       0.52795445       0.00000000
Si      -2.72398122      -2.50694955      -1.05415524       0.00000000
Si       0.54086058      -2.94283737      -2.53809442       0.00000000
