10
Lattice="16.28999089631971 0.0 0.0 0.0 16.28999089631971 0.0 0.0 0.0 34.385447050020396" Properties=species:S:1:pos:R:3:initial_magmoms:R:1 pbc="T T T"
Si       2.06787608      -0.06206490       1.02919139       0.00000000
Si      -1.23598746       0.56601234       1.96062490       0.00000000
Si       0.67369643       1.65965778      -1.60284412       0.00000000
Si      -0.69512688      -2.37682503      -0.57746952       0.00000000
Si       1.69507943       0.06478533      -3.01312964       0.00000000
Si      -0.90200988      -1.56177117       3.03671807       0.00000000
Si      -3.39775191       0.38099052       1.05267666       0.00000000
Si       1.48397895      -1.57392351       2.84959236       0.00000000
Si      -1.82009799      -1.79766666      -2.66215718       0.00000000
Si       2.74988951       2.26207827       1.12681173       0.00000000
