10
Lattice="16.28999089631971 0.0 0.0 0.0 16.28999089631971 0.0 0.0 0.0 34.385447050020396" Properties=species:S:1:pos:R:3:initial_magmoms:R:1 pbc="T T T"
Si      -1.20966282       1.58850306      -1.23120601       0.00000000
Si      -1.37845980      -0.87477300       1.73509063       0.00000000
Si       1.67412330       1.46274426       0.89274986       0.00000000
Si       1.29718899      -1.75379769      -1.09208241       0.00000000
Si       0.51160374      -1.95954039       2.58461796       0.00000000
Si       2.20665969       2.35972053      -1.19486057       0.00000000
Si       1.50910560      -3.14776557       0.85661074       0.00000000
Si      -3.04864092       0.39480444      -2.04486929       0.00000000
Si      -1.53863937       0.77999778       3.40285451       0.00000000
Si      -2.39546079       2.96715834       0.30637450       0.00000000
