10
Lattice="16.28999089631971 0.0 0.0 0.0 16.28999089631971 0.0 0.0 0.0 34.385447050020396" Properties=species:S:1:pos:R:3:initial_magmoms:R:1 pbc="T T T"
Si      -1.34987085       1.34905635       1.35784768       0.00000000
Si      -1.35586557      -1.34863281      -1.37755399       0.00000000
Si       1.36508571      -1.36572102       1.35581893       0.00000000
Si       1.36135530       1.31991354      -1.40656157       0.00000000
Si       0.32363343      -2.34018882      -2.72943579       0.00000000
Si       2.33519823      -0.61129854      -2.84621227       0.00000000
Si      -2.70723510       2.70405855      -0.00168489       0.00000000
Si       0.00604359       2.70575271       2.71356346       0.00000000
Si      -2.70850572      -0.00737937       2.71476695       0.00000000
Si       2.71925616       2.70915732      -0.00835567       0.00000000
