10
Lattice="16.28999089631971 0.0 0.0 0.0 16.28999089631971 0.0 0.0 0.0 34.385447050020396" Properties=species:S:1:pos:R:3:initial_magmoms:R:1 pbc="T T T"
Si       1.35438318      -1.35376416       1.35936064       0.00000000
Si       1.35674523       1.35747284      -1.35808838       0.00000000
Si      -1.35821133      -1.35715248      -1.35798522       0.00000000
Si      -1.35860229       1.35884664       1.36001396       0.00000000
Si       2.71454931       2.71378435       0.00017193       0.00000000
Si      -0.00029322      -2.71415835      -2.71431994       0.00000000
Si      -0.00045612       2.71446853      -2.71507642       0.00000000
Si       2.71425609      -0.00102627      -2.71552343       0.00000000
Si      -2.71524978       2.71467867       0.00068771       0.00000000
Si      -2.71502172      -0.00003258      -2.71552343       0.00000000
