10
Lattice="16.28999089631971 0.0 0.0 0.0 16.28999089631971 0.0 0.0 0.0 34.385447050020396" Properties=species:S:1:pos:R:3:initial_magmoms:R:1 pbc="T T T"
Si       1.36329122       1.32895449       1.27797024       0.00000000
Si       1.38726684      -1.25933103      -1.33508450       0.00000000
Si      -0.95622300      -1.51534467       1.47551474       0.00000000
Si      -1.33291296       1.45644003      -1.30654456       0.00000000
Si      -1.15401618      -0.24332373       3.41186350       0.00000000
Si      -2.56148847      -2.57439015       0.06113736       0.00000000
Si       0.07199384       1.81452681       3.21662283       0.00000000
Si       0.02777916      -2.61731430      -2.67773380       0.00000000
Si      -2.69381214       0.10741626      -2.67347000       0.00000000
Si       2.66518151      -2.73165381      -0.04225974       0.00000000
