10
Lattice="16.28999089631971 0.0 0.0 0.0 16.28999089631971 0.0 0.0 0.0 34.385447050020396" Properties=species:S:1:pos:R:3:initial_magmoms:R:1 pbc="T T T"
Si       1.60518402      -1.63354491      -0.36648030       0.00000000
Si      -0.10704159       0.23612355       2.33257249       0.00000000
Si      -1.98617454      -0.57624246      -1.13516740       0.00000000
Si       0.32327505       2.24054289      -0.89075550       0.00000000
Si      -1.66487058       2.91949380       0.16879825       0.00000000
Si      -1.08800910       2.34199701       2.33277880       0.00000000
Si       3.32297659      -0.29453949      -1.37861650       0.00000000
Si      -3.14558271       1.52950068      -1.01911645       0.00000000
Si       2.72811629      -1.74966003       1.72006418       0.00000000
Si      -1.15916382      -0.49694274      -3.44762439       0.00000000
