10
Lattice="16.28999089631971 0.0 0.0 0.0 16.28999089631971 0.0 0.0 0.0 34.385447050020396" Properties=species:S:1:pos:R:3:initial_magmoms:R:1 pbc="T T T"
Si       1.98617454       0.57624246       1.13516740       0.00000000
Si      -1.15940817       2.10574314       0.11605095       0.00000000
Si      -0.95228082      -2.23796907       0.09727648       0.00000000
Si       0.82701072       0.07929972      -2.31245699       0.00000000
Si      -2.97906633       0.58135752       0.76260087       0.00000000
Si       0.62068158      -3.17744595      -1.33862620       0.00000000
Si       2.30944959       2.81678535       0.24441189       0.00000000
Si      -1.76171463       2.44465659      -2.14943550       0.00000000
Si       0.32130396       3.49573626       1.30396565       0.00000000
Si       3.59135856      -1.05730245       0.76868710       0.00000000
