10
Lattice="16.28999089631971 0.0 0.0 0.0 16.28999089631971 0.0 0.0 0.0 34.385447050020396" Properties=species:S:1:pos:R:3:initial_magmoms:R:1 pbc="T T T"
Si       1.18508121       1.41843546      -1.35554385       0.00000000
Si      -0.15967458       0.67805496       2.20397085       0.00000000
Si      -2.12650963      -0.13321962      -1.11866237       0.00000000
Si       1.19016369      -2.08741689       0.27993208       0.00000000
Si      -2.52114303      -2.27468673      -0.22409008       0.00000000
Si      -0.45887301      -3.36471742      -0.75262909       0.00000000
Si      -1.30854312      -1.10825757      -3.18192789       0.00000000
Si       0.65757843       3.59077212      -0.75778691       0.00000000
Si      -0.39511395      -1.45841112       3.41994409       0.00000000
Si       1.85950350       2.03243814       2.53885090       0.00000000
