10
Lattice="16.28999089631971 0.0 0.0 0.0 16.28999089631971 0.0 0.0 0.0 34.385447050020396" Properties=species:S:1:pos:R:3:initial_magmoms:R:1 pbc="T T T"
Si       2.23078518       0.60434271      -0.40736462       0.00000000
Si      -1.33675903       1.43987310       1.29708856       0.00000000
Si      -0.81762605      -0.48031065      -2.17302393       0.00000000
Si       0.60621606      -1.95396921       1.23316598       0.00000000
Si       0.63656433      -2.28638295      -2.58193589       0.00000000
Si       2.65574241      -0.93199977      -2.24705584       0.00000000
Si      -0.12593799       1.96289613       3.20929872       0.00000000
Si      -3.20361488      -0.46815831      -1.98589822       0.00000000
Si       3.43448586       0.11148876       1.61883337       0.00000000
Si      -1.60574765       3.47863176       0.22391816       0.00000000
