10
Lattice="16.28999089631971 0.0 0.0 0.0 16.28999089631971 0.0 0.0 0.0 34.385447050020396" Properties=species:S:1:pos:R:3:initial_magmoms:R:1 pbc="T T T"
Si      -1.35438566       1.35079938       1.35616279       0.00000000
Si       1.35723393       1.35632169      -1.35674734       0.00000000
Si      -1.35774518      -1.35871632      -1.35719435       0.00000000
Si       1.35887922      -1.35628911       1.36011712       0.00000000
Si       2.71927341       0.00188964       2.68718980       0.00000000
Si       0.00510203       2.70878265       2.69881209       0.00000000
Si      -2.70369107       0.00027693       2.70816494       0.00000000
Si      -0.03597321      -2.71673217       2.69998120       0.00000000
Si       2.71477737       2.71311579       0.00048140       0.00000000
Si       2.71464705      -0.00232947      -2.71366661       0.00000000
