10
Lattice="16.28999089631971 0.0 0.0 0.0 16.28999089631971 0.0 0.0 0.0 34.385447050020396" Properties=species:S:1:pos:R:3:initial_magmoms:R:1 pbc="T T T"
Si       0.83287512       2.21348520       0.25462438       0.00000000
Si      -2.25552059       0.12458592      -1.05267666       0.00000000
Si      -0.58205473      -0.54218007       2.42499172       0.00000000
Si       1.57708377      -1.21386564      -1.70761664       0.00000000
Si      -1.36681082       3.51580554       0.31087900       0.00000000
Si       1.75804938       2.75646348      -1.97135317       0.00000000
Si      -1.90712636       1.26314289      -3.11559833       0.00000000
Si       1.29384954      -3.60212625      -1.48892507       0.00000000
Si       0.35036532       1.77051123      -3.70651257       0.00000000
Si       1.16598933      -1.31496138       3.88171481       0.00000000
