10
Lattice="16.28999089631971 0.0 0.0 0.0 16.28999089631971 0.0 0.0 0.0 34.385447050020396" Properties=species:S:1:pos:R:3:initial_magmoms:R:1 pbc="T T T"
Si       1.35580704       1.35553977       1.35767575       0.00000000
Si       1.35659059      -1.35728280      -1.35764136       0.00000000
Si      -1.35799197       1.35664749      -1.35777891       0.00000000
Si      -1.35721005      -1.35861858       1.35819153       0.00000000
Si      -2.71390641      -0.00004887      -2.71349468       0.00000000
Si       2.71521569       2.71484210       0.00006877       0.00000000
Si       0.00105015      -2.71482624      -2.71552343       0.00000000
Si      -2.71514445      -2.71541268      -0.00013754       0.00000000
Si       2.71534601      -2.71529865      -0.00006877       0.00000000
Si      -2.71550283       2.71514660      -0.00034385       0.00000000
