10
Lattice="16.28999089631971 0.0 0.0 0.0 16.28999089631971 0.0 0.0 0.0 34.385447050020396" Properties=species:S:1:pos:R:3:initial_magmoms:R:1 pbc="T T T"
Si       1.82861766       1.38166893      -0.24740343       0.00000000
Si      -0.14763627      -1.18941435       1.99167498       0.00000000
Si       0.41891364      -1.95470226      -1.33972654       0.00000000
Si      -1.39582168       1.90440104      -0.47761413       0.00000000
Si      -2.11772348      -2.20939641       1.22161246       0.00000000
Si       1.99927170       1.09266804      -2.59369572       0.00000000
Si       2.42944173      -2.59424766      -0.19861045       0.00000000
Si      -0.02917539       0.32436648      -3.62006750       0.00000000
Si       1.37912769       3.17927762       1.20156573       0.00000000
Si      -1.22332361      -3.48291603      -0.54005813       0.00000000
