10
Lattice="10.86 0.0 0.0 0.0 10.86 0.0 0.0 0.0 10.86" Properties=species:S:1:pos:R:3:initial_magmoms:R:1 pbc="T T T"
Si       0.97877922       1.35135324       1.29912750       0.00000000
Si       0.97877922      -1.36364676      -1.41587250       0.00000000
Si      -1.73622078      -1.36364676       1.29912750       0.00000000
Si       2.33627922      -0.00614676       2.65662750       0.00000000
Si       2.33627922       2.70885324      -0.05837250       0.00000000
Si       2.33627922      -2.72114676      -0.05837250       0.00000000
Si       2.33627922      -0.00614676      -2.77337250       0.00000000
Si      -0.34508736       2.78949960       2.52957636       0.00000000
Si      -0.37872078      -2.72114676       2.65662750       0.00000000
Si      -0.37872078      -2.72114676      -2.77337250       0.00000000
