10
Lattice="10.86 0.0 0.0 0.0 10.86 0.0 0.0 0.0 10.86" Properties=species:S:1:pos:R:3:initial_magmoms:R:1 pbc="T T T"
Si      -1.39984314      -1.38366174      -1.15386414       0.00000000
Si       1.58032548       1.02029700      -1.37875302       0.00000000
Si       0.93455730      -1.86997254       1.07042676       0.00000000
Si      -1.27810254       1.16106432       1.68385386       0.00000000
Si       0.07505346       2.41706676      -2.61400200       0.00000000
Si      -2.63994654       2.41706676       0.10099800       0.00000000
Si       2.79005346       2.41706676       0.10099800       0.00000000
Si       0.07505346       2.41706676       2.81599800       0.00000000
Si      -2.63994654      -0.29793324      -2.61400200       0.00000000
Si       2.79005346      -0.29793324      -2.61400200       0.00000000
