10
Lattice="10.86 0.0 0.0 0.0 10.86 0.0 0.0 0.0 10.86" Properties=species:S:1:pos:R:3:initial_magmoms:R:1 pbc="T T T"
Si       1.20972798      -1.31823024      -1.23524898       0.00000000
Si      -1.58032548      -1.02029700       1.37875302       0.00000000
Si       1.20972798       1.39676976       1.47975102       0.00000000
Si      -1.50527202       1.39676976      -1.23524898       0.00000000
Si       2.56722798       0.03926976      -2.59274898       0.00000000
Si      -0.14777202      -2.67573024      -2.59274898       0.00000000
Si       2.56722798       2.75426976       0.12225102       0.00000000
Si       2.42567874       0.00039096       2.88447030       0.00000000
Si      -0.14777202       2.75426976      -2.59274898       0.00000000
Si       2.91486744      -2.48411640      -0.07094838       0.00000000
