10
Lattice="16.28999089631971 0.0 0.0 0.0 16.28999089631971 0.0 0.0 0.0 34.51007289658418" Properties=species:S:1:pos:R:3:initial_magmoms:R:1 pbc="T T T"
Si      -1.25019234      -1.43185842      -1.35241600       0.00000000
Si      -1.76713920       1.08844893       1.25792737       0.00000000
Si       1.58408847       1.32421410      -1.32850051       0.00000000
Si       0.42637446      -1.60516773       2.10066382       0.00000000
Si      -2.34662174      -2.97958761       0.15512286       0.00000000
Si      -2.56688535      -0.05620050      -2.83835155       0.00000000
Si       2.00715606      -0.15529257       3.26113469       0.00000000
Si      -2.61209987       2.82484890      -0.07982184       0.00000000
Si       0.15806187       2.67327045      -2.82389182       0.00000000
Si      -0.84484827       2.56663611       2.86758160       0.00000000
