10
Lattice="16.28999089631971 0.0 0.0 0.0 16.28999089631971 0.0 0.0 0.0 34.51007289658418" Properties=species:S:1:pos:R:3:initial_magmoms:R:1 pbc="T T T"
Si      -0.84496067       1.73639997      -1.33774921       0.00000000
Si       0.92229093       1.47818718       1.60965423       0.00000000
Si       1.76713920      -1.08844893      -1.25792737       0.00000000
Si      -2.13387206      -1.14777711       0.79117837       0.00000000
Si      -2.14295145       0.29455578      -2.74890139       0.00000000
Si       2.19351366      -2.69361666       0.84273645       0.00000000
Si       0.51694686      -2.52030735      -2.61034337       0.00000000
Si      -0.92879064       1.81855044       3.08461557       0.00000000
Si       1.78243551       3.36679832       0.33357455       0.00000000
Si      -1.84501517       3.45211068       0.08285873       0.00000000
