10
Lattice="16.28999089631971 0.0 0.0 0.0 16.28999089631971 0.0 0.0 0.0 34.51007289658418" Properties=species:S:1:pos:R:3:initial_magmoms:R:1 pbc="T T T"
Si       1.03024476      -1.74265533       1.17268744       0.00000000
Si      -0.38353176      -0.99013878      -2.09800654       0.00000000
Si       1.95216102       1.37805811       0.11695470       0.00000000
Si      -1.99005875       0.85137309       1.14777116       0.00000000
Si      -1.62252377       0.90901851      -2.66555952       0.00000000
Si      -0.43012768       2.83648715      -1.82130463       0.00000000
Si       1.44422253       2.43321191       2.13358645       0.00000000
Si      -0.82390910       2.17195289       2.69088993       0.00000000
Si       3.14783073      -2.13741090       0.09334980       0.00000000
Si      -0.37365350      -3.60066015       1.19353154       0.00000000
