10
Lattice="16.28999089631971 0.0 0.0 0.0 16.28999089631971 0.0 0.0 0.0 34.51007289658418" Properties=species:S:1:pos:R:3:initial_magmoms:R:1 pbc="T T T"
Si      -1.03692366       1.34875661      -1.52934925       0.00000000
Si       2.06140176      -0.40567476      -0.91952141       0.00000000
Si       0.15786639       1.44581243       1.78403373       0.00000000
Si      -0.95819409      -2.11880513      -0.23877533       0.00000000
Si       0.88889643      -3.31818896       0.62528836       0.00000000
Si       1.40499621      -1.05430250      -3.06370245       0.00000000
Si      -0.52898517       0.29360282      -3.54598099       0.00000000
Si      -3.30505529       1.08749759      -0.97204577       0.00000000
Si       2.91762045       1.78182626      -1.32698206       0.00000000
Si      -0.96368382       0.45099679       3.55992307       0.00000000
