10
Lattice="16.28999089631971 0.0 0.0 0.0 16.28999089631971 0.0 0.0 0.0 34.51007289658418" Properties=species:S:1:pos:R:3:initial_magmoms:R:1 pbc="T T T"
Si       0.27388377       1.83752829       1.46619578       0.00000000
Si       0.35098434      -2.03606755       1.15701986       0.00000000
Si      -2.28758841      -0.03534930      -0.62180284       0.00000000
Si       1.65918537       0.13206303      -1.72519402       0.00000000
Si       2.53848699       2.29231251      -1.38689158       0.00000000
Si       1.09991709       3.52375506       0.10277105       0.00000000
Si      -1.87377354      -2.73014603       1.66393860       0.00000000
Si      -2.44545480      -1.48116173      -2.40583657       0.00000000
Si      -3.40913862      -1.03016494       1.15408650       0.00000000
Si       1.76783967      -3.28912109      -0.30610452       0.00000000
