10
Lattice="16.28999089631971 0.0 0.0 0.0 16.28999089631971 0.0 0.0 0.0 34.51007289658418" Properties=species:S:1:pos:R:3:initial_magmoms:R:1 pbc="T T T"
Si      -1.34099280      -1.35884664       1.35269208       0.00000000
Si      -1.36992384       1.34335485      -1.34774679       0.00000000
Si       1.36642149      -1.21611366      -1.47109966       0.00000000
Si       1.37179719       1.35739683       1.35407249       0.00000000
Si       0.10536372       2.46397653      -2.81027556       0.00000000
Si       2.72186352      -2.68558569      -0.01305172       0.00000000
Si      -2.70174537       0.00043983       2.71328698       0.00000000
Si      -2.69342118       2.73041577       0.00489008       0.00000000
Si       0.01251072       2.71581993       2.71339051       0.00000000
Si       0.01309716      -2.71625976       2.71373561       0.00000000
