10
Lattice="16.28999089631971 0.0 0.0 0.0 16.28999089631971 0.0 0.0 0.0 34.51007289658418" Properties=species:S:1:pos:R:3:initial_magmoms:R:1 pbc="T T T"
Si      -0.97350180       1.60401114       1.48324376       0.00000000
Si      -1.19239609      -1.92746864      -0.84425490       0.00000000
Si       2.35521472       0.39092742       0.51219879       0.00000000
Si       0.88367386      -0.94276746      -2.25074821       0.00000000
Si       0.43012768      -2.83648715       1.82130463       0.00000000
Si       2.38228870      -1.45842904       1.93825933       0.00000000
Si      -0.57015814       3.53045025       0.10080398       0.00000000
Si       0.04659592      -3.82662593      -0.27670192       0.00000000
Si      -1.55993107      -1.98511406       2.96907578       0.00000000
Si      -3.28808830       1.38802203       1.63450150       0.00000000
