10
Lattice="16.28999089631971 0.0 0.0 0.0 16.28999089631971 0.0 0.0 0.0 34.51007289658418" Properties=species:S:1:pos:R:3:initial_magmoms:R:1 pbc="T T T"
Si      -1.35141840       1.35738054      -1.36011175       0.00000000
Si       1.36246302      -1.35871632      -1.35924900       0.00000000
Si       1.35342207       1.37261169       1.35838625       0.00000000
Si      -1.34680833      -1.35314514       1.38568373       0.00000000
Si       2.68061724      -0.07001442       2.63715771       0.00000000
Si      -2.71034649       2.71308321      -0.00044863       0.00000000
Si      -2.70989037      -0.00097740      -2.71715211       0.00000000
Si      -2.70993924      -2.71787247       0.00079373       0.00000000
Si       0.00456120       2.71340901      -2.71739368       0.00000000
Si       2.72424186       2.70922248       0.00096628       0.00000000
