10
Lattice="16.28999089631971 0.0 0.0 0.0 16.28999089631971 0.0 0.0 0.0 34.51007289658418" Properties=species:S:1:pos:R:3:initial_magmoms:R:1 pbc="T T T"
Si      -0.29828619       1.92886632       1.28512132       0.00000000
Si      -1.76306670      -1.29720528      -0.90261146       0.00000000
Si      -0.12189807       1.70271225      -1.87010190       0.00000000
Si       0.87144984      -1.69894926       1.66535352       0.00000000
Si      -0.98135847      -1.75392801       3.16868215       0.00000000
Si       2.90476764      -1.17485109      -2.09445200       0.00000000
Si      -0.93374280       3.61460439      -0.58908727       0.00000000
Si      -0.74358963      -2.99442780      -2.25834043       0.00000000
Si      -1.81959300       0.67168557      -3.35096446       0.00000000
Si       1.55380536      -3.54430164       0.44141859       0.00000000
