10
Lattice="16.28999089631971 0.0 0.0 0.0 16.28999089631971 0.0 0.0 0.0 34.51007289658418" Properties=species:S:1:pos:R:3:initial_magmoms:R:1 pbc="T T T"
Si      -0.81184473       1.91189214       1.28101462       0.00000000
Si       1.11524598       1.61267742      -1.46495341       0.00000000
Si      -1.69769493      -1.03102668      -1.48086257       0.00000000
Si       0.12189807      -1.70271225       1.87010190       0.00000000
Si      -0.17638812       0.22615407       3.15522322       0.00000000
Si      -1.64116863      -2.99991753       0.96749043       0.00000000
Si       2.43424728       2.89061163       0.02136175       0.00000000
Si       2.37778614       0.24909039      -2.94336576       0.00000000
Si      -0.32244426      -2.47666644      -2.91606828       0.00000000
Si      -2.81877110       2.72921031       0.06246327       0.00000000
