10
Lattice="16.28999089631971 0.0 0.0 0.0 16.28999089631971 0.0 0.0 0.0 34.51007289658418" Properties=species:S:1:pos:R:3:initial_magmoms:R:1 pbc="T T T"
Si       1.03692366      -1.34875661       1.52934925       0.00000000
Si       0.50793849      -1.05515380      -2.01663175       0.00000000
Si      -2.26813163      -0.26125902       0.55730348       0.00000000
Si      -0.14234202       2.49202791       0.21931164       0.00000000
Si      -2.39482222       1.96708266      -0.12320103       0.00000000
Si      -0.03935664       2.02193109       2.69741234       0.00000000
Si       1.19479005       0.09705582       3.31338297       0.00000000
Si      -1.44422253      -2.43321191      -2.13358645       0.00000000
Si       0.48086451       0.79420266      -3.44269229       0.00000000
Si       0.67966767       2.82776481      -2.08126915       0.00000000
