10
Lattice="16.28999089631971 0.0 0.0 0.0 16.28999089631971 0.0 0.0 0.0 34.51007289658418" Properties=species:S:1:pos:R:3:initial_magmoms:R:1 pbc="T T T"
Si      -1.35733167      -1.35695700      -1.35655721       0.00000000
Si       1.35694071      -1.35752715       1.35738546       0.00000000
Si       1.35863487       1.35641943      -1.35707486       0.00000000
Si      -1.35754344       1.35780408       1.35738546       0.00000000
Si       2.71371852       0.00244350      -2.71187206       0.00000000
Si       0.00092853       2.71037907      -2.71739368       0.00000000
Si       0.00021177       2.71342530       2.71456385       0.00000000
Si       0.00096111      -2.71355562       2.71466738       0.00000000
Si      -2.71419908       0.00161271       2.71501248       0.00000000
Si      -2.71495330       2.71450044       0.00034510       0.00000000
