10
Lattice="16.28999089631971 0.0 0.0 0.0 16.28999089631971 0.0 0.0 0.0 34.51007289658418" Properties=species:S:1:pos:R:3:initial_magmoms:R:1 pbc="T T T"
Si      -0.20991294       1.39121487       1.84232718       0.00000000
Si      -2.05454367      -1.01729421      -0.36035438       0.00000000
Si       0.17326044       1.77028317      -1.50201725       0.00000000
Si       1.55774754      -1.86136056      -0.13365759       0.00000000
Si      -0.78804504      -1.03407291      -2.64650995       0.00000000
Si       1.22859180       0.21804165      -2.87921150       0.00000000
Si      -1.02183912      -0.50355648       2.99109464       0.00000000
Si      -1.88331948      -2.22576786       1.66886610       0.00000000
Si       2.84446206      -1.13648814      -1.90330060       0.00000000
Si      -3.55716096       0.94444533      -0.25810098       0.00000000
