10
Lattice="16.28999089631971 0.0 0.0 0.0 16.28999089631971 0.0 0.0 0.0 34.51007289658418" Properties=species:S:1:pos:R:3:initial_magmoms:R:1 pbc="T T T"
Si       1.35821133       1.35670532      -1.35807566       0.00000000
Si      -1.35760860      -1.35842310      -1.35776507       0.00000000
Si      -1.35979146       1.35772263       1.35704035       0.00000000
Si       1.35798327      -1.35923760       1.36169922       0.00000000
Si      -0.00939933       2.70269575       2.72370903       0.00000000
Si      -2.71448415       2.71318488      -0.00144942       0.00000000
Si       2.71448415       2.71338850      -0.00110432       0.00000000
Si      -2.71427238      -0.00096111      -2.71466738       0.00000000
Si       0.00019548       2.71430237      -2.71480542       0.00000000
Si       2.71508688      -0.00118917      -2.71477091       0.00000000
