10
Lattice="16.28999089631971 0.0 0.0 0.0 16.28999089631971 0.0 0.0 0.0 34.51007289658418" Properties=species:S:1:pos:R:3:initial_magmoms:R:1 pbc="T T T"
Si       0.62301105       1.85756499      -1.36922242       0.00000000
Si       1.49685552      -1.89034047      -0.18066033       0.00000000
Si      -1.97951193      -0.80637129      -1.25188810       0.00000000
Si       1.09525815       0.71425134       2.56130453       0.00000000
Si       2.02623165       0.54646434      -2.75777049       0.00000000
Si      -0.71568486      -2.18629719      -2.76167013       0.00000000
Si       3.32043957      -0.90961731      -1.30396383       0.00000000
Si       1.13528268       3.08248407       2.08962059       0.00000000
Si       0.57428766      -3.64182498      -1.39161947       0.00000000
Si       1.44645426       3.71106467      -0.15084361       0.00000000
