10
Lattice="16.28999089631971 0.0 0.0 0.0 16.28999089631971 0.0 0.0 0.0 34.51007289658418" Properties=species:S:1:pos:R:3:initial_magmoms:R:1 pbc="T T T"
Si       1.35627282       1.35668318       1.35697133       0.00000000
Si       1.35687555      -1.35789449      -1.35669525       0.00000000
Si      -1.35801585       1.35759705      -1.35672976       0.00000000
Si      -1.35821133      -1.35670532       1.35807566       0.00000000
Si      -0.00333945      -2.71255460      -2.71404620       0.00000000
Si       0.00280188       2.71285338       2.71390816       0.00000000
Si      -0.00086337       2.71418916      -2.71411522       0.00000000
Si      -2.71422351      -0.00167186      -2.71414973       0.00000000
Si       2.71430496       2.71487334       0.00010353       0.00000000
Si       2.71570590      -0.00156677      -2.71356306       0.00000000
