10
Lattice="16.28999089631971 0.0 0.0 0.0 16.28999089631971 0.0 0.0 0.0 34.51007289658418" Properties=species:S:1:pos:R:3:initial_magmoms:R:1 pbc="T T T"
Si       1.90254168      -0.40089690       1.36618553       0.00000000
Si      -1.94891931       0.66699405       1.27079963       0.00000000
Si      -0.76914864      -1.81090880      -1.45836199       0.00000000
Si      -0.17203869       1.93451895      -1.73313134       0.00000000
Si       0.86385870       0.34498962       3.32746309       0.00000000
Si      -1.32626664      -0.55887732       3.20029340       0.00000000
Si       3.27492531       1.46864124       0.98854159       0.00000000
Si      -3.32017893      -1.68979917      -1.06719009       0.00000000
Si      -0.45797706      -1.18232820      -3.69882619       0.00000000
Si      -1.72159236       2.83186989       2.21682479       0.00000000
