10
Lattice="16.28999089631971 0.0 0.0 0.0 16.28999089631971 0.0 0.0 0.0 34.51007289658418" Properties=species:S:1:pos:R:3:initial_magmoms:R:1 pbc="T T T"
Si      -0.75524824       2.13637974      -0.68512886       0.00000000
Si      -0.45375292      -1.46037799      -1.89118756       0.00000000
Si       2.37563179       0.65514633       0.69775955       0.00000000
Si      -0.90804844      -0.90158145       2.29550780       0.00000000
Si      -1.26771535      -3.01514446       1.11864464       0.00000000
Si       0.03519373      -3.49879456      -0.82099509       0.00000000
Si       0.99936299       2.94793125      -2.03688917       0.00000000
Si       1.86300178       1.84104204       2.66611168       0.00000000
Si       2.99158927       1.79925819      -1.36842869       0.00000000
Si      -2.67261382       0.84272568       2.74003489       0.00000000
