10
Lattice="16.28999089631971 0.0 0.0 0.0 16.28999089631971 0.0 0.0 0.0 34.51007289658418" Properties=species:S:1:pos:R:3:initial_magmoms:R:1 pbc="T T T"
Si       0.82720620       1.01546973      -2.04530963       0.00000000
Si       0.58873689       2.16803610       1.05241977       0.00000000
Si       0.17203869      -1.93451895       1.73313134       0.00000000
Si      -1.79717796      -1.25486757      -1.86992934       0.00000000
Si       2.71287144      -0.52724214      -1.79524951       0.00000000
Si      -1.11886236       0.42916005      -3.31017353       0.00000000
Si      -0.28593837      -3.11684715      -1.96569485       0.00000000
Si      -1.77688062      -1.26752490       3.00393097       0.00000000
Si      -0.59710995      -3.74542775       0.27476935       0.00000000
Si       2.52389115       1.72667484       2.53535294       0.00000000
