10
Lattice="16.28999089631971 0.0 0.0 0.0 16.28999089631971 0.0 0.0 0.0 34.51007289658418" Properties=species:S:1:pos:R:3:initial_magmoms:R:1 pbc="T T T"
Si      -1.19355201       1.34858394       1.52168800       0.00000000
Si       1.01159271       1.87927956      -1.06316552       0.00000000
Si      -1.88434575      -0.91567719      -1.26855790       0.00000000
Si       1.51558902      -1.36497168       1.49611258       0.00000000
Si      -2.55391362       2.62699056       0.03129375       0.00000000
Si      -2.53841369      -0.00834048       2.89030304       0.00000000
Si      -0.71843787       3.67543125      -1.14795258       0.00000000
Si      -3.57420519       0.89718804      -1.35331469       0.00000000
Si       2.86238106       2.69444745       0.18675827       0.00000000
Si       0.17282061       2.70757719       2.88816342       0.00000000
