10
Lattice="16.28999089631971 0.0 0.0 0.0 16.28999089631971 0.0 0.0 0.0 34.51007289658418" Properties=species:S:1:pos:R:3:initial_magmoms:R:1 pbc="T T T"
Si       1.35190710      -1.35759231      -1.36228589       0.00000000
Si      -1.36306575       1.35780408      -1.36131961       0.00000000
Si       1.35470898       1.33701804       1.39123986       0.00000000
Si      -1.34928441      -1.36907676       1.38513157       0.00000000
Si       2.70664866      -2.71568961      -0.00103530       0.00000000
Si       2.71036278       2.71710684      -0.00048314       0.00000000
Si       2.70995553       0.00063531      -2.71856702       0.00000000
Si      -0.00491958      -2.71529865      -2.71839447       0.00000000
Si      -0.00496845       2.71538010      -2.71898114       0.00000000
Si      -2.72010420       2.71441899       0.00055216       0.00000000
