10
Lattice="16.28999089631971 0.0 0.0 0.0 16.28999089631971 0.0 0.0 0.0 34.51007289658418" Properties=species:S:1:pos:R:3:initial_magmoms:R:1 pbc="T T T"
Si       1.36036161      -1.27840662       1.49039425       0.00000000
Si       1.83547575       1.04844069      -1.17924633       0.00000000
Si      -1.02029157      -1.72980252      -1.38460844       0.00000000
Si      -1.34128863       1.43376435       1.46551938       0.00000000
Si       2.55391362      -2.62699056      -0.03129375       0.00000000
Si       3.56550633      -0.74771100      -1.09445928       0.00000000
Si      -2.70764954      -2.69219943       0.03638054       0.00000000
Si       0.66956787      -3.54266775      -1.29985165       0.00000000
Si      -2.61007244       2.84623767      -0.04162607       0.00000000
Si       2.69695611       2.77065207       0.14298221       0.00000000
