10
Lattice="16.28999089631971 0.0 0.0 0.0 16.28999089631971 0.0 0.0 0.0 34.51007289658418" Properties=species:S:1:pos:R:3:initial_magmoms:R:1 pbc="T T T"
Si      -1.34289873      -1.35077657       1.36447383       0.00000000
Si       1.37200800       1.35840681       1.36485344       0.00000000
Si       1.09515782      -1.43986821      -1.52670577       0.00000000
Si      -1.35114147       1.30153842      -1.45777531       0.00000000
Si       2.02607594       0.45107010      -2.79400750       0.00000000
Si       0.33621650       2.26393533      -2.87876429       0.00000000
Si      -2.50953966      -0.54724626      -2.72008429       0.00000000
Si      -2.70384678       0.00215028       2.72261851       0.00000000
Si       2.71760273      -2.71110302      -0.03131791       0.00000000
Si       2.71686968       2.71533123      -0.00376160       0.00000000
