10
Lattice="16.28999089631971 0.0 0.0 0.0 16.28999089631971 0.0 0.0 0.0 34.51007289658418" Properties=species:S:1:pos:R:3:initial_magmoms:R:1 pbc="T T T"
Si       1.35767376       1.35697872       1.35641917       0.00000000
Si       1.35703845      -1.35707930      -1.35766154       0.00000000
Si      -1.35868374      -1.35670463       1.35690231       0.00000000
Si      -1.35803214       1.35824771      -1.35779958       0.00000000
Si       2.70923177       0.00331489       2.71408071       0.00000000
Si      -0.00053757      -2.71320551      -2.71404620       0.00000000
Si      -2.71425609      -0.00138689      -2.71421875       0.00000000
Si       2.71417655      -2.71473677      -0.00034510       0.00000000
Si       2.71498914      -0.00010601      -2.71452934       0.00000000
Si       2.71455446       2.71519982       0.00013804       0.00000000
