10
Lattice="16.28999089631971 0.0 0.0 0.0 16.28999089631971 0.0 0.0 0.0 34.51007289658418" Properties=species:S:1:pos:R:3:initial_magmoms:R:1 pbc="T T T"
Si       1.35155801      -1.35366383       1.35766154       0.00000000
Si      -1.35767376      -1.35697872      -1.35641917       0.00000000
Si       1.35688070       1.35822110      -1.35628113       0.00000000
Si      -1.35747828       1.36121846       1.36256197       0.00000000
Si       2.69937910       0.01181351       2.72153489       0.00000000
Si       2.71377783      -2.71369964       0.00120785       0.00000000
Si       2.71396028       0.00173326      -2.71363208       0.00000000
Si      -0.00063531      -2.71405802      -2.71408071       0.00000000
Si      -0.01306458      -2.69941331       2.72871299       0.00000000
Si      -0.00014661       2.71529213      -2.71401169       0.00000000
