10
Lattice="16.28999089631971 0.0 0.0 0.0 16.28999089631971 0.0 0.0 0.0 34.51007289658418" Properties=species:S:1:pos:R:3:initial_magmoms:R:1 pbc="T T T"
Si      -1.32861240       1.34260551      -1.48900695       0.00000000
Si      -1.42379487      -1.38916070       1.40984080       0.00000000
Si       1.36959382      -1.35101767      -1.49946351       0.00000000
Si       0.93356102       1.85890077       1.32960483       0.00000000
Si       0.34360238      -2.20518544       2.68933697       0.00000000
Si       2.78673749       0.83553039       2.40870090       0.00000000
Si       2.73527738      -2.63562524      -0.13065521       0.00000000
Si      -2.74859541       2.73523761      -0.19108238       0.00000000
Si       2.73021119       2.80442124      -0.03965210       0.00000000
Si      -2.68726356      -0.00161271      -2.85843643       0.00000000
