10
Lattice="16.28999089631971 0.0 0.0 0.0 16.28999089631971 0.0 0.0 0.0 34.51007289658418" Properties=species:S:1:pos:R:3:initial_magmoms:R:1 pbc="T T T"
Si      -1.42221474       0.78856632       1.75815116       0.00000000
Si      -0.78263676      -1.27451331      -1.91758778       0.00000000
Si       0.84940947       1.78140924      -1.42533583       0.00000000
Si       1.41367878      -1.43705493       1.38678805       0.00000000
Si      -1.68192621      -1.16256843       3.04900115       0.00000000
Si       2.79106344       2.47834431      -0.35438414       0.00000000
Si       1.28590002      -1.47823605      -3.19849887       0.00000000
Si      -2.39042718       0.08410527      -2.97701310       0.00000000
Si       0.81749736      -3.65255099       0.79321447       0.00000000
Si       0.55333872      -1.52142084       3.57258827       0.00000000
