10
Lattice="16.28999089631971 0.0 0.0 0.0 16.28999089631971 0.0 0.0 0.0 34.51007289658418" Properties=species:S:1:pos:R:3:initial_magmoms:R:1 pbc="T T T"
Si      -0.86034006      -0.08436591       2.18580022       0.00000000
Si       2.34511933       0.13305672       0.21675789       0.00000000
Si      -0.59618142      -2.21549606      -0.59357359       0.00000000
Si      -1.41367878       1.43705493      -1.38678805       0.00000000
Si      -3.09560499       0.27448650       1.66221310       0.00000000
Si      -2.83589352       2.22562125       0.37136310       0.00000000
Si       3.01768733       0.22128336      -2.03119501       0.00000000
Si       0.70447734      -2.84090174      -2.50394876       0.00000000
Si      -0.47679201      -3.58691858       1.40266270       0.00000000
Si      -0.47118825      -2.13971498       3.29919932       0.00000000
