10
Lattice="16.28999089631971 0.0 0.0 0.0 16.28999089631971 0.0 0.0 0.0 34.51007289658418" Properties=species:S:1:pos:R:3:initial_magmoms:R:1 pbc="T T T"
Si      -1.41089319       1.18009647       1.49583649       0.00000000
Si      -1.30844538      -1.32512634      -1.47801345       0.00000000
Si       1.20045897       1.46285829      -1.60790944       0.00000000
Si       1.30557834      -1.53482751       1.47564464       0.00000000
Si       0.40664727      -2.91636612      -2.31933499       0.00000000
Si       2.75735943       2.57799024      -0.03239807       0.00000000
Si      -2.82993138       2.52622062       0.11920476       0.00000000
Si      -0.04966821       2.52758898       2.86979025       0.00000000
Si      -1.00038519       0.08601120      -3.76982867       0.00000000
Si      -2.76991902      -2.76025905       0.04133964       0.00000000
