10
Lattice="16.28999089631971 0.0 0.0 0.0 16.28999089631971 0.0 0.0 0.0 34.51007289658418" Properties=species:S:1:pos:R:3:initial_magmoms:R:1 pbc="T T T"
Si      -2.16948591       0.36119817      -0.70856121       0.00000000
Si       0.31237704       2.13421806       0.96500571       0.00000000
Si       1.67565456       0.12952179      -1.74555497       0.00000000
Si      -0.25391223      -2.05809489       1.30327363       0.00000000
Si       1.75138677      -2.07379845       2.46429666       0.00000000
Si      -2.70645318      -1.48550139      -2.00300026       0.00000000
Si      -0.21897018       1.67236398       3.37632938       0.00000000
Si       3.24318654      -1.53445284      -1.24857514       0.00000000
Si      -3.53440872       0.66041289       1.26586469       0.00000000
Si       2.53841273       2.75064795       0.77416490       0.00000000
