10
Lattice="16.28999089631971 0.0 0.0 0.0 16.28999089631971 0.0 0.0 0.0 34.51007289658418" Properties=species:S:1:pos:R:3:initial_magmoms:R:1 pbc="T T T"
Si       1.35799956       1.35679410       1.35717840       0.00000000
Si      -1.35744570       1.35739683      -1.35759252       0.00000000
Si      -1.35804843      -1.35822762       1.35628113       0.00000000
Si       1.35721764      -1.35777150      -1.35766154       0.00000000
Si       2.71070645       0.00162900       2.71428777       0.00000000
Si      -2.71272483      -0.00043983      -2.71566817       0.00000000
Si      -2.70995553      -0.00063531       2.71856702       0.00000000
Si       2.71430687       2.71480995      -0.00034510       0.00000000
Si       2.71422773      -0.00148239      -2.71494346       0.00000000
Si      -2.71492398       2.71474479      -0.00041412       0.00000000
