10
Lattice="16.28999089631971 0.0 0.0 0.0 16.28999089631971 0.0 0.0 0.0 34.51007289658418" Properties=species:S:1:pos:R:3:initial_magmoms:R:1 pbc="T T T"
Si      -1.35470898      -1.33701804      -1.39123986       0.00000000
Si       1.35565380       1.38008880      -1.39172300       0.00000000
Si      -1.40735826       1.28819691       1.43558532       0.00000000
Si       1.52529786      -1.36787130       1.63053284       0.00000000
Si       0.47254032       1.76722065       3.03851009       0.00000000
Si       2.71933857      -2.67357996      -0.01770368       0.00000000
Si      -2.70399339      -2.70609480      -0.00610829       0.00000000
Si      -2.70156618       2.74427856      -0.01822133       0.00000000
Si      -0.00280188      -2.69461035      -2.75352575       0.00000000
Si       2.69998605       2.75072940      -0.02467472       0.00000000
