10
Lattice="16.28999089631971 0.0 0.0 0.0 16.28999089631971 0.0 0.0 0.0 34.51007289658418" Properties=species:S:1:pos:R:3:initial_magmoms:R:1 pbc="T T T"
Si      -0.26700939      -1.72603953       1.44835406       0.00000000
Si      -1.97021034       1.04405868      -0.64030025       0.00000000
Si       1.71069435       1.51837461       0.41574308       0.00000000
Si       0.07913682      -0.90319905      -2.15318818       0.00000000
Si      -2.17978119      -0.26407719      -2.60941160       0.00000000
Si       1.90086381      -2.54604555       1.52696805       0.00000000
Si      -1.09529073       2.96948781      -1.62207786       0.00000000
Si       0.59360760       3.52494423      -0.07626730       0.00000000
Si      -0.60569478      -0.75740355       3.48620951       0.00000000
Si       3.35707319       0.81451629      -1.10087194       0.00000000
