10
Lattice="16.28999089631971 0.0 0.0 0.0 16.28999089631971 0.0 0.0 0.0 34.51007289658418" Properties=species:S:1:pos:R:3:initial_magmoms:R:1 pbc="T T T"
Si      -0.61403526       0.22933062       2.29505917       0.00000000
Si       0.25599735       2.38792734      -0.31897678       0.00000000
Si      -1.93184739      -1.39729104      -0.45632695       0.00000000
Si       2.17823364      -1.04967873      -0.59740421       0.00000000
Si      -1.69852572      -3.00423438       1.30772543       0.00000000
Si       2.58945840       2.58403776      -1.04282597       0.00000000
Si      -1.73117088      -2.26465209      -2.66942465       0.00000000
Si       2.61814869      -2.74624965       0.96120960       0.00000000
Si       3.82845041       0.68488047      -0.47527299       0.00000000
Si      -1.48895487      -1.69609851       3.27683678       0.00000000
