10
Lattice="16.28999089631971 0.0 0.0 0.0 16.28999089631971 0.0 0.0 0.0 34.51007289658418" Properties=species:S:1:pos:R:3:initial_magmoms:R:1 pbc="T T T"
Si      -2.31458650      -0.21598911       0.15125773       0.00000000
Si       0.97350180      -1.60401114      -1.48324376       0.00000000
Si       0.45302979      -0.04020372       2.34844628       0.00000000
Si       0.40334366       1.92643911      -1.38243978       0.00000000
Si      -2.56574572      -2.53100988       0.47485887       0.00000000
Si       3.52751968       0.82047843       0.39037816       0.00000000
Si       3.32871652      -1.21308372      -0.97104497       0.00000000
Si      -0.18313397       3.71123667       0.13089678       0.00000000
Si      -1.06058230       1.42557048       3.31897361       0.00000000
Si       2.65978396       2.52012816      -0.98474548       0.00000000
