10
Lattice="16.28999089631971 0.0 0.0 0.0 16.28999089631971 0.0 0.0 0.0 34.51007289658418" Properties=species:S:1:pos:R:3:initial_magmoms:R:1 pbc="T T T"
Si       2.25855637      -0.38706669       0.43403343       0.00000000
Si      -0.50806296       1.55981637       1.68795763       0.00000000
Si      -1.14241185      -1.90288377       0.84749884       0.00000000
Si      -0.26496353       0.38278242      -2.34057798       0.00000000
Si       0.37120023      -3.36865797      -0.12302848       0.00000000
Si       0.08535634       0.11891700       3.44821390       0.00000000
Si      -2.51780913       0.88093062      -2.25696003       0.00000000
Si       3.15157417       1.42618950      -0.75829026       0.00000000
Si       2.30144794       0.12742038       2.71421875       0.00000000
Si       2.62368043      -2.84371272       0.21948419       0.00000000
