10
Lattice="16.28999089631971 0.0 0.0 0.0 16.28999089631971 0.0 0.0 0.0 34.51007289658418" Properties=species:S:1:pos:R:3:initial_magmoms:R:1 pbc="T T T"
Si       0.10114461      -0.49518342      -2.27562999       0.00000000
Si      -2.27937173      -0.16656525       0.55778662       0.00000000
Si       1.05741648      -1.91319534       0.88276816       0.00000000
Si       0.38591010       2.23304949       0.68329983       0.00000000
Si      -1.29422421       1.05396300      -3.18628230       0.00000000
Si       1.91023056      -0.96211998       2.92669739       0.00000000
Si      -2.73891100      -2.44286469       0.17506970       0.00000000
Si      -0.74668473      -3.59153775       0.84353018       0.00000000
Si      -0.88058853       2.24982819       2.96945539       0.00000000
Si       2.92661253      -2.43926460      -0.49894691       0.00000000
