10
Lattice="16.28999089631971 0.0 0.0 0.0 16.28999089631971 0.0 0.0 0.0 34.51007289658418" Properties=species:S:1:pos:R:3:initial_magmoms:R:1 pbc="T T T"
Si       1.35665563       1.35619137      -1.35762703       0.00000000
Si      -1.35847513      -1.35894438      -1.35707486       0.00000000
Si       1.35623209      -1.35946566       1.35931802       0.00000000
Si      -1.36257451       1.35778779       1.35717840       0.00000000
Si       2.71441085       2.71181259      -0.00044863       0.00000000
Si      -0.00075423       2.71288773      -2.71466738       0.00000000
Si      -2.71528140       2.71295289       0.00006902       0.00000000
Si       0.00599309      -2.71101438       2.71725564       0.00000000
Si       2.71419908      -0.00161271      -2.71501248       0.00000000
Si       2.71516018      -2.71516833      -0.00034510       0.00000000
