10
Lattice="16.28999089631971 0.0 0.0 0.0 16.28999089631971 0.0 0.0 0.0 34.51007289658418" Properties=species:S:1:pos:R:3:initial_magmoms:R:1 pbc="T T T"
Si       1.35754344      -1.35720461      -1.36169922       0.00000000
Si      -1.35687392       1.35985662      -1.36007724       0.00000000
Si      -1.37273712      -1.34507182       1.36028430       0.00000000
Si       1.36313091       1.36472733       1.38489000       0.00000000
Si      -0.00705357      -2.62967939       2.72909260       0.00000000
Si       2.71223613      -2.71266686      -0.00320944       0.00000000
Si       2.70993924       2.71787247      -0.00079373       0.00000000
Si      -2.71505851       2.71538010       0.00141491       0.00000000
Si      -2.72055822      -2.71054916      -0.00358905       0.00000000
Si      -0.00026064      -2.71352102      -2.71770427       0.00000000
