10
Lattice="16.28999089631971 0.0 0.0 0.0 16.28999089631971 0.0 0.0 0.0 34.51007289658418" Properties=species:S:1:pos:R:3:initial_magmoms:R:1 pbc="T T T"
Si      -0.25241355       0.08882937      -2.30496357       0.00000000
Si       2.25258120      -0.57394557       0.01532248       0.00000000
Si      -0.89301780      -1.81325619       1.19232368       0.00000000
Si      -0.71198703       2.05442964       0.93308387       0.00000000
Si      -3.15157417      -1.42618950       0.75829026       0.00000000
Si      -0.57361977      -2.23451559      -2.69792999       0.00000000
Si       3.10946778       1.16993151      -1.35565995       0.00000000
Si       1.36736631       2.88160326       1.69064942       0.00000000
Si       2.84390820      -0.48426912       2.28864029       0.00000000
Si       1.59220089       1.24553340      -3.15480910       0.00000000
