10
Lattice="16.28999089631971 0.0 0.0 0.0 16.28999089631971 0.0 0.0 0.0 34.51007289658418" Properties=species:S:1:pos:R:3:initial_magmoms:R:1 pbc="T T T"
Si       1.63168622      -0.92045016       1.36152667       0.00000000
Si       1.29308228       0.26568990      -1.90654455       0.00000000
Si      -0.89152075       2.07739854       0.60648036       0.00000000
Si      -1.65456783      -1.65511287      -0.39338054       0.00000000
Si       1.15494308      -3.08750886       0.63288058       0.00000000
Si      -1.84473729       2.40930729      -1.50460551       0.00000000
Si      -0.19835844       1.70544897      -3.02122053       0.00000000
Si      -1.06114852      -3.09601224       1.36687573       0.00000000
Si       3.37243562       1.09286352      -1.14897901       0.00000000
Si      -2.62841661       1.82477322       2.09469358       0.00000000
