10
Lattice="16.28999089631971 0.0 0.0 0.0 16.28999089631971 0.0 0.0 0.0 34.51007289658418" Properties=species:S:1:pos:R:3:initial_magmoms:R:1 pbc="T T T"
Si      -2.22603569      -0.61642989       0.19084081       0.00000000
Si       0.19618047      -0.52457058      -2.28898539       0.00000000
Si       1.42712455      -1.73659545       0.72108838       0.00000000
Si       0.44363046       2.04848379       1.12226820       0.00000000
Si       2.51265105       2.14492059      -0.03081751       0.00000000
Si      -0.86275817      -2.62112616      -2.51971987       0.00000000
Si      -2.53841273      -2.75064795      -0.77416490       0.00000000
Si       2.41227207      -0.51606720      -3.02298054       0.00000000
Si      -2.75738291      -1.07828397       2.60216448       0.00000000
Si      -3.75736085       1.00027116      -0.71439342       0.00000000
