10
Lattice="16.28999089631971 0.0 0.0 0.0 16.28999089631971 0.0 0.0 0.0 34.51007289658418" Properties=species:S:1:pos:R:3:initial_magmoms:R:1 pbc="T T T"
Si      -1.35032208      -1.35808101       1.39461839       0.00000000
Si       1.36125756       1.36230405       1.39203014       0.00000000
Si       1.56828717      -1.21468014      -1.39773811       0.00000000
Si      -1.62244490       1.27123480      -1.49538786       0.00000000
Si      -2.69047988      -2.70655092       0.02920934       0.00000000
Si       2.70840798       2.71287863       0.00198088       0.00000000
Si      -2.71760273       2.71110302       0.03131791       0.00000000
Si       2.74895379      -2.71041165       0.02177932       0.00000000
Si      -2.70595538      -0.00179190       2.75435054       0.00000000
Si       0.00834048       2.71336733       2.75569643       0.00000000
