10
Lattice="16.28999089631971 0.0 0.0 0.0 16.28999089631971 0.0 0.0 0.0 34.51007289658418" Properties=species:S:1:pos:R:3:initial_magmoms:R:1 pbc="T T T"
Si      -0.16483851       1.42880567      -1.88708086       0.00000000
Si      -1.87414821       1.33561058       0.77699473       0.00000000
Si      -0.86014458      -1.88861114       1.27607968       0.00000000
Si       2.13255648       0.87893184       0.81267816       0.00000000
Si      -1.23577569      -0.34512743      -3.07070800       0.00000000
Si      -1.18431558       3.12602819      -0.53135189       0.00000000
Si      -2.62739618      -1.63039835      -1.67132376       0.00000000
Si      -3.62745068       0.08531236      -0.25071582       0.00000000
Si       2.80891728      -0.87775148       2.18324647       0.00000000
Si       1.45020096       2.72428421       2.03661309       0.00000000
