10
Lattice="16.28999089631971 0.0 0.0 0.0 16.28999089631971 0.0 0.0 0.0 34.51007289658418" Properties=species:S:1:pos:R:3:initial_magmoms:R:1 pbc="T T T"
Si      -1.35155801       1.35366383      -1.35766154       0.00000000
Si       1.34782110       1.36547734       1.36387335       0.00000000
Si       1.36221983      -1.36003581      -1.35645368       0.00000000
Si      -1.36462259      -1.34574948       1.37105145       0.00000000
Si       0.02389337      -2.64624534       2.72091371       0.00000000
Si      -2.70923177      -0.00331489      -2.71408071       0.00000000
Si      -2.70903629       2.71488230       0.00490043       0.00000000
Si      -2.70895484      -2.71639008       0.00400317       0.00000000
Si       0.00532269       2.71188494      -2.71394267       0.00000000
Si       2.72055822       2.71054916       0.00358905       0.00000000
