10
Lattice="16.290000149 0.0 0.0 0.0 16.290000149 0.0 0.0 0.0 29.1751946751" Properties=species:S:1:pos:R:3:initial_magmoms:R:1 pbc="T T T"
Si      -1.33450939      -1.36380207       1.36997962       0.00000000
Si       1.34855137      -1.35078799      -1.37350981       0.00000000
Si       1.36104580       1.34561917       1.36770395       0.00000000
Si      -1.36893016       1.34325712      -1.36551581       0.00000000
Si      -2.69653259      -2.70627401      -0.00799400       0.00000000
Si       2.71467965       2.69291621      -0.00662277       0.00000000
Si      -0.00830790       2.73351089       2.67848710       0.00000000
Si       2.72453510      -2.69617421      -0.03670239       0.00000000
Si      -2.75910249      -0.00110772       2.66862588       0.00000000
Si      -0.01821222       2.70785414      -2.72157886       0.00000000
