10
Lattice="16.290000149 0.0 0.0 0.0 16.290000149 0.0 0.0 0.0 29.1751946751" Properties=species:S:1:pos:R:3:initial_magmoms:R:1 pbc="T T T"
H        0.44657406       1.28982592      -0.65603343       0.00000000
Si      -0.81766027       0.97673212       1.94429332       0.00000000
Si      -1.87709672      -0.71032546      -1.27486848       0.00000000
Si       2.00749817      -1.36891387      -0.07988168       0.00000000
H        0.96904324      -0.25860375      -2.47668228       0.00000000
H       -0.65319643      -2.67103874      -1.05675473       0.00000000
Si       3.17178520       0.68150845      -0.67622266       0.00000000
Si      -2.32606541       2.28112130       0.64427582       0.00000000
Si       0.78915277      -2.95347477      -1.49791284       0.00000000
Si       2.00498951       0.84593971      -2.69287047       0.00000000
