10
Lattice="16.290000149 0.0 0.0 0.0 16.290000149 0.0 0.0 0.0 29.1751946751" Properties=species:S:1:pos:R:3:initial_magmoms:R:1 pbc="T T T"
Si      -1.34356663       1.35713620      -1.36927941       0.00000000
Si       1.32772135      -1.35005005      -1.39480771       0.00000000
Si       1.34810014       1.37898109       1.35130749       0.00000000
Si      -1.34433226      -1.37132479       1.36329850       0.00000000
Si       2.66737349      -2.70894557      -0.03244282       0.00000000
Si      -2.68705181       2.72275949      -0.01794274       0.00000000
Si      -2.70961346      -2.71179632      -0.00875256       0.00000000
Si       2.71940375       0.03658734       2.70728301       0.00000000
Si      -2.72733699      -0.02715543       2.69949324       0.00000000
Si       2.70850574       2.72909631      -0.00204226       0.00000000
