10
Lattice="16.290000149 0.0 0.0 0.0 16.290000149 0.0 0.0 0.0 29.1751946751" Properties=species:S:1:pos:R:3:initial_magmoms:R:1 pbc="T T T"
Si      -1.37145511      -1.40615281      -1.31311424       0.00000000
Si      -1.34583094       1.28339137       1.45794283       0.00000000
Si       1.34079733      -1.33553566       1.42121126       0.00000000
Si       1.34333857       1.41830515      -1.35730883       0.00000000
Si       2.67323789      -0.01897785      -2.67542662       0.00000000
Si       0.06116895      -2.77462686      -2.60066518       0.00000000
Si      -2.67985163      -2.69659775       0.15591224       0.00000000
Si      -2.78124060       2.60420087       0.17767694       0.00000000
Si      -2.72134226      -0.04116483      -2.68516822       0.00000000
Si       2.68902290       2.74971945       0.03384323       0.00000000
