10
Lattice="16.290000149 0.0 0.0 0.0 16.290000149 0.0 0.0 0.0 29.1751946751" Properties=species:S:1:pos:R:3:initial_magmoms:R:1 pbc="T T T"
H       -0.89821432       0.72767431       0.98737611       0.00000000
Si       1.14956902       1.64331893      -1.17888209       0.00000000
Si       1.39998542      -1.16618482       1.46509075       0.00000000
Si      -1.60195861      -1.11680983      -1.34092112       0.00000000
Si      -0.63509824       2.77798260      -2.20631575       0.00000000
Si      -1.99161542       2.45472383       1.77400209       0.00000000
Si       2.61268308       0.44067708      -2.52648433       0.00000000
Si      -0.06421518      -2.34074270       2.88028900       0.00000000
Si      -2.27511029       2.89170309      -0.53224308       0.00000000
Si       2.86035624      -2.43928091       0.11565047       0.00000000
