10
Lattice="16.290000149 0.0 0.0 0.0 16.290000149 0.0 0.0 0.0 29.1751946751" Properties=species:S:1:pos:R:3:initial_magmoms:R:1 pbc="T T T"
Si      -1.46630038      -1.38098476       1.21538026       0.00000000
Si       1.33840270      -1.33092559      -1.40849087       0.00000000
Si      -1.34795842       1.35299854      -1.38488814       0.00000000
Si       1.41390685       1.39422853       1.29797524       0.00000000
Si      -0.11383452       2.65803932       2.51192591       0.00000000
Si      -0.04776228      -2.60459183       2.59052389       0.00000000
Si       2.76104100       2.68504814      -0.07159593       0.00000000
Si      -2.80676703      -0.07881102       2.63959656       0.00000000
Si      -0.01019754       2.70260876      -2.75492611       0.00000000
Si       2.75903733      -2.70255989      -0.15562049       0.00000000
