10
Lattice="16.290000149 0.0 0.0 0.0 16.290000149 0.0 0.0 0.0 29.1751946751" Properties=species:S:1:pos:R:3:initial_magmoms:R:1 pbc="T T T"
Si      -1.39554802       1.28220220      -1.36006005       0.00000000
Si       1.43788573      -1.37163430      -1.23203930       0.00000000
Si      -1.37606518      -1.31911534       1.35588800       0.00000000
Si       0.87783553       1.88936309       1.06950429       0.00000000
Si      -2.43330248       0.14682177       2.83454521       0.00000000
Si       0.05520681      -2.72254772      -2.57258114       0.00000000
Si      -2.57865815       2.73429281       0.05152339       0.00000000
Si      -0.01130526       2.61788447      -2.69990169       0.00000000
Si       2.77935096      -0.03919374      -2.60481973       0.00000000
Si      -2.74550034      -0.06162507      -2.67230196       0.00000000
