10
Lattice="16.290000149 0.0 0.0 0.0 16.290000149 0.0 0.0 0.0 29.1751946751" Properties=species:S:1:pos:R:3:initial_magmoms:R:1 pbc="T T T"
Si       1.43387351      -1.21316518       1.38089114       0.00000000
Si      -1.43552857       1.24592437       1.36793735       0.00000000
Si      -1.35868440      -1.41302719      -1.31011212       0.00000000
Si       1.36750805       1.42692256      -1.30001750       0.00000000
H       -1.18088980      -1.43988940       3.05350505       0.00000000
Si      -0.04748209      -2.41235354       2.76706299       0.00000000
Si       2.57593284      -2.64248237      -0.08078611       0.00000000
Si      -0.01439059       2.68403816       2.53415741       0.00000000
Si       2.56594707       0.02402775      -2.77467771       0.00000000
Si      -2.72742332       2.66009186       0.01120327       0.00000000
