10
Lattice="16.290000149 0.0 0.0 0.0 16.290000149 0.0 0.0 0.0 29.1751946751" Properties=species:S:1:pos:R:3:initial_magmoms:R:1 pbc="T T T"
Si      -1.33776088      -1.34961022       1.37003797       0.00000000
Si       1.35123922      -1.36153450      -1.36119788       0.00000000
Si      -1.40614141       1.33772667      -1.33321887       0.00000000
Si       1.34395759       1.34667314       1.38818494       0.00000000
Si       2.65230524       2.69337233      -0.03466013       0.00000000
Si      -2.71701597       0.04582214       2.66885928       0.00000000
Si      -0.05825304       2.69066819      -2.70996713       0.00000000
Si       2.71487513      -0.01179396      -2.71128002       0.00000000
Si      -2.71672519      -2.70985781       0.01269121       0.00000000
Si      -0.07535754       2.70163136       2.72411710       0.00000000
