10
Lattice="16.290000149 0.0 0.0 0.0 16.290000149 0.0 0.0 0.0 29.1751946751" Properties=species:S:1:pos:R:3:initial_magmoms:R:1 pbc="T T T"
Si       1.25046928      -1.36850662       1.41142882       0.00000000
Si       1.90164575       0.79845436      -1.12360093       0.00000000
Si      -1.28896255       1.44906067       1.32799651       0.00000000
Si      -1.83775637      -0.88637149      -1.18047214       0.00000000
H        0.77520853      -1.82817785      -2.00734384       0.00000000
Si       1.24616872       1.22982985      -3.25219104       0.00000000
Si       2.66688479       0.06255360       2.64755847       0.00000000
Si      -2.71933859       0.06213006       2.61056433       0.00000000
Si       2.74069478      -2.60607259       0.12757729       0.00000000
Si      -3.47104065       0.85330279      -1.26544285       0.00000000
