10
Lattice="16.290000149 0.0 0.0 0.0 16.290000149 0.0 0.0 0.0 29.1751946751" Properties=species:S:1:pos:R:3:initial_magmoms:R:1 pbc="T T T"
Si      -1.38748447      -1.34428339      -1.27857373       0.00000000
Si       1.32992327      -1.40866147       1.31081232       0.00000000
Si      -1.42477228       1.35832537       1.27247612       0.00000000
Si       1.29609757       1.31691619      -1.46607396       0.00000000
Si       2.62823677       2.67525785      -0.08705878       0.00000000
Si       2.66531607      -0.03251484       2.65707250       0.00000000
Si      -0.06869493       2.70655094       2.62950195       0.00000000
Si      -0.12844665      -2.74185138      -2.64533241       0.00000000
Si      -2.74989864      -0.02881701       2.65383406       0.00000000
Si       2.67850445      -2.73513990      -0.09785360       0.00000000
