10
Lattice="16.290000149 0.0 0.0 0.0 16.290000149 0.0 0.0 0.0 29.1751946751" Properties=species:S:1:pos:R:3:initial_magmoms:R:1 pbc="T T T"
Si       1.31080744      -1.42667821       1.29704163       0.00000000
Si      -1.35092971      -1.38696319      -1.32254075       0.00000000
Si       1.37634211       1.33007851      -1.35495439       0.00000000
Si      -1.29889945       1.35856972       1.41718508       0.00000000
Si       2.66075975      -0.08285094       2.60928354       0.00000000
Si       0.00855225       2.68737761      -2.68207565       0.00000000
Si      -2.67020307       2.70096347       0.06120956       0.00000000
Si      -2.69058186      -0.02806767      -2.68490564       0.00000000
Si      -2.63078778      -0.03846069       2.75933156       0.00000000
Si       0.03655476      -2.73823499      -2.65724756       0.00000000
