10
Lattice="16.290000149 0.0 0.0 0.0 16.290000149 0.0 0.0 0.0 29.1751946751" Properties=species:S:1:pos:R:3:initial_magmoms:R:1 pbc="T T T"
Si      -1.34784988      -1.35436690       1.35711336       0.00000000
Si      -1.36891285       1.35583300      -1.34170885       0.00000000
Si       1.33150166      -1.34977312      -1.38967287       0.00000000
Si       1.31505527       1.36642150       1.39381575       0.00000000
Si       0.02870270       2.69034239      -2.67781607       0.00000000
Si       2.68254051      -2.70935282      -0.03051725       0.00000000
Si      -2.69133506       0.01125639       2.70845002       0.00000000
Si       2.69070180       2.71401176       0.04227486       0.00000000
Si      -2.71873484      -2.70334181       0.00195474       0.00000000
Si       2.70422250       0.01759320       2.72435050       0.00000000
