10
Lattice="16.290000149 0.0 0.0 0.0 16.290000149 0.0 0.0 0.0 29.1751946751" Properties=species:S:1:pos:R:3:initial_magmoms:R:1 pbc="T T T"
Si       1.43304760      -1.22689765      -1.28376692       0.00000000
Si      -1.22321611       1.53217225      -1.24181299       0.00000000
Si       1.48410046       1.01641456       1.46978796       0.00000000
Si      -1.12155022      -1.44098083       1.54934871       0.00000000
H        2.07959771      -2.06573492      -0.20343863       0.00000000
Si      -1.99586711       0.33972795       2.83422429       0.00000000
Si      -0.12483027       1.80415010       2.99495043       0.00000000
Si       2.46247787      -0.84260026       2.36523303       0.00000000
Si      -0.00612504      -2.55810017      -2.49386647       0.00000000
Si       0.69732604      -2.32743377       2.69847211       0.00000000
