10
Lattice="16.290000149 0.0 0.0 0.0 16.290000149 0.0 0.0 0.0 29.1751946751" Properties=species:S:1:pos:R:3:initial_magmoms:R:1 pbc="T T T"
H        1.28567197       0.05183478       0.81480484       0.00000000
Si      -1.34459779      -1.39040853       1.35302883       0.00000000
Si       0.61722811      -1.51741351      -1.75436281       0.00000000
Si      -0.78636881       2.26356068       0.21175356       0.00000000
Si       0.53027208       2.00526644      -1.69811303       0.00000000
Si       2.73895176       1.92194309      -0.88602149       0.00000000
Si       0.49438521      -2.56422521       2.28182115       0.00000000
H       -3.06139602       1.01626795      -1.52618361       0.00000000
Si       3.59953617      -0.15525999      -0.08921775       0.00000000
Si       2.68455944      -2.23925763      -0.90434351       0.00000000
