10
Lattice="16.290000149 0.0 0.0 0.0 16.290000149 0.0 0.0 0.0 29.1751946751" Properties=species:S:1:pos:R:3:initial_magmoms:R:1 pbc="T T T"
Si      -1.27933516       1.37356793      -1.38944822       0.00000000
Si       1.30321630       1.32105711       1.43160054       0.00000000
Si      -1.40067286      -1.39421224       1.26626472       0.00000000
Si       1.33688773      -1.31492881      -1.41304220       0.00000000
Si       2.65544921       2.65134413       0.09172973       0.00000000
Si      -0.09189189      -2.67558365      -2.68762127       0.00000000
Si       2.66497886      -2.70883154      -0.04009255       0.00000000
Si      -2.70373364       2.67783167      -0.02839038       0.00000000
Si      -0.03373659      -2.74085769       2.64006628       0.00000000
Si      -2.68312723      -0.04826727       2.72155260       0.00000000
