10
Lattice="16.290000149 0.0 0.0 0.0 16.290000149 0.0 0.0 0.0 29.1751946751" Properties=species:S:1:pos:R:3:initial_magmoms:R:1 pbc="T T T"
Si      -1.30253212       1.43117425       1.30004317       0.00000000
Si       1.26416917       1.47660706      -1.32773393       0.00000000
Si       1.45626085      -1.41200092       1.21791850       0.00000000
Si      -1.37323072      -1.02429892      -1.63678677       0.00000000
Si       0.34244838      -1.46282572      -3.16332048       0.00000000
Si      -0.41580225       2.41460156      -2.64239738       0.00000000
Si       2.24213933       0.03313386      -2.84513581       0.00000000
Si      -2.21491874       0.82126036      -2.76297846       0.00000000
Si       2.41593734      -2.67613751      -0.53854492       0.00000000
Si      -2.59511105      -0.05944221       2.57421495       0.00000000
