10
Lattice="16.290000149 0.0 0.0 0.0 16.290000149 0.0 0.0 0.0 29.1751946751" Properties=species:S:1:pos:R:3:initial_magmoms:R:1 pbc="T T T"
Si      -1.35394336      -1.35470899       1.33514443       0.00000000
Si      -1.37598373       1.34538623      -1.33680742       0.00000000
Si       1.30686526       1.31381458       1.44720636       0.00000000
Si       1.35242839      -1.38596950      -1.33692412       0.00000000
Si       0.04150692      -2.80455159       2.52905175       0.00000000
Si       2.67397094       2.67265145       0.07063315       0.00000000
Si      -0.01058850       2.69273702      -2.68575172       0.00000000
Si       2.71261082      -0.02246391      -2.67892473       0.00000000
Si      -2.72686457      -0.02319696      -2.68931109       0.00000000
Si      -2.72453510       2.69617421       0.03670239       0.00000000
