10
Lattice="16.290000149 0.0 0.0 0.0 16.290000149 0.0 0.0 0.0 29.1751946751" Properties=species:S:1:pos:R:3:initial_magmoms:R:1 pbc="T T T"
Si      -1.35521398      -1.34068330       1.31412954       0.00000000
Si      -1.39926214       1.36458073      -1.26150916       0.00000000
Si       1.33959187      -1.15945705      -1.54983886       0.00000000
Si       1.42537501       1.45854145       1.22184840       0.00000000
Si       0.43297191       2.38166318      -2.20956003       0.00000000
Si       2.17186427       0.83160451      -2.64526093       0.00000000
Si       0.08019567      -2.66149280       2.59439543       0.00000000
Si      -2.69109173       0.10080252       2.60206851       0.00000000
Si      -2.65992896      -2.63396270      -0.16287052       0.00000000
Si       2.76936519      -2.52657902      -0.22085622       0.00000000
