10
Lattice="16.290000149 0.0 0.0 0.0 16.290000149 0.0 0.0 0.0 29.1751946751" Properties=species:S:1:pos:R:3:initial_magmoms:R:1 pbc="T T T"
Si      -0.47773683       2.02668779      -1.06568234       0.00000000
Si       1.59575212       0.81337600       1.55909323       0.00000000
Si       1.29829672      -1.50301315      -1.31658901       0.00000000
Si      -1.86421133      -0.90554482       1.27790270       0.00000000
H       -2.78381442      -0.73977778      -1.27282622       0.00000000
H        1.03951378       1.17822313      -2.76446640       0.00000000
H       -1.07566129       1.93194515      -2.46664601       0.00000000
Si      -2.19341594       2.46521459       0.46085138       0.00000000
Si       2.23202324      -2.55072080       0.51678022       0.00000000
Si       3.29620008      -0.78568300       1.57306815       0.00000000
