10
Lattice="16.290000149 0.0 0.0 0.0 16.290000149 0.0 0.0 0.0 29.1751946751" Properties=species:S:1:pos:R:3:initial_magmoms:R:1 pbc="T T T"
Si       1.30223890       1.23707890      -1.49910903       0.00000000
Si       1.44759457      -1.35039214       1.28391279       0.00000000
Si      -1.50456070       1.33504696       1.24703535       0.00000000
Si      -1.43550739      -1.40932936      -1.31664736       0.00000000
Si       2.50483187      -2.81632926      -0.19474442       0.00000000
Si      -2.81740602      -0.15221376       2.51752755       0.00000000
Si      -0.11839572       2.60871320      -2.75197941       0.00000000
Si       0.13325220      -2.70861977       2.66780898       0.00000000
Si       2.48534903      -0.21501171      -2.91069247       0.00000000
Si       3.15700203       2.16850853      -0.39138524       0.00000000
