10
Lattice="16.290000149 0.0 0.0 0.0 16.290000149 0.0 0.0 0.0 29.1751946751" Properties=species:S:1:pos:R:3:initial_magmoms:R:1 pbc="T T T"
Si      -1.34723188      -1.36291915      -1.35086986       0.00000000
Si       1.34395759      -1.38238570       1.34345936       0.00000000
Si      -1.38748447       1.35127180       1.33470681       0.00000000
Si       1.34884459       1.34768800      -1.37774022       0.00000000
Si       2.71129133      -0.02417436       2.67300216       0.00000000
Si      -0.03655476       2.73823499       2.65724756       0.00000000
Si      -2.69148758      -0.00550602      -2.71346816       0.00000000
Si       2.71386515       2.70334181      -0.03066313       0.00000000
Si      -0.03095100      -2.71818200       2.70626188       0.00000000
Si       0.01053963      -2.71845893      -2.70672869       0.00000000
