10
Lattice="16.290000149 0.0 0.0 0.0 16.290000149 0.0 0.0 0.0 29.1751946751" Properties=species:S:1:pos:R:3:initial_magmoms:R:1 pbc="T T T"
Si       1.43934255      -1.34877943       1.28677196       0.00000000
Si      -1.25770204      -1.36858807      -1.45552129       0.00000000
Si       1.37937205       1.32644584      -1.38929360       0.00000000
Si      -1.42949638       1.28236510       1.41275045       0.00000000
Si       0.08938323      -2.75846718       2.59195347       0.00000000
Si      -2.69112431       2.67319880      -0.01870130       0.00000000
Si      -0.03033198       2.69959349       2.67151423       0.00000000
Si      -2.59529024      -2.81597088      -0.19920823       0.00000000
Si      -2.72707635      -0.30714795       2.68922357       0.00000000
Si       2.74992633       2.69880505      -0.05913812       0.00000000
