10
Lattice="16.290000149 0.0 0.0 0.0 16.290000149 0.0 0.0 0.0 29.1751946751" Properties=species:S:1:pos:R:3:initial_magmoms:R:1 pbc="T T T"
Si      -0.97837741       1.85901482      -0.89544507       0.00000000
Si      -1.76515184      -1.48483351       0.33323907       0.00000000
Si       0.37141200       0.65471140       2.22367499       0.00000000
Si       1.76153546      -0.97489135      -1.25444585       0.00000000
H       -0.38288016      -1.22313466      -2.56867166       0.00000000
Si       1.86823496      -1.20589984       2.56502477       0.00000000
Si       2.49937472      -2.29897514       0.53448957       0.00000000
Si      -2.46247787       0.84260026      -2.36523303       0.00000000
Si      -1.07465131      -3.53716665      -0.42651217       0.00000000
Si      -3.58402809      -0.59838058      -0.81588432       0.00000000
