10
Lattice="16.290000149 0.0 0.0 0.0 16.290000149 0.0 0.0 0.0 29.1751946751" Properties=species:S:1:pos:R:3:initial_magmoms:R:1 pbc="T T T"
Si       1.36109467       1.36340785      -1.32983455       0.00000000
Si      -1.34861653       1.36585135       1.35617975       0.00000000
Si       1.38504097      -1.33802803       1.34897348       0.00000000
Si      -1.33408585      -1.35132067      -1.39492441       0.00000000
Si       2.69697242      -0.07807797      -2.61777352       0.00000000
Si      -2.68949531      -2.69465924      -0.01861377       0.00000000
Si       0.02445129      -2.69980688       2.69316222       0.00000000
Si      -0.02072088       2.72033228      -2.67262288       0.00000000
Si      -2.71741637       0.02246391       2.69899726       0.00000000
Si       0.01743030       2.72885195       2.70801239       0.00000000
