10
Lattice="16.290000149 0.0 0.0 0.0 16.290000149 0.0 0.0 0.0 29.1751946751" Properties=species:S:1:pos:R:3:initial_magmoms:R:1 pbc="T T T"
Si       1.36058968       1.36177885      -1.34418874       0.00000000
Si      -1.36502056      -1.35565381      -1.34707709       0.00000000
Si       1.35122293      -1.37613034       1.34202978       0.00000000
Si      -1.37407780       1.36497169       1.33295629       0.00000000
Si      -0.02445129       2.69980688      -2.69316222       0.00000000
Si       2.72922662      -0.01782126      -2.66725465       0.00000000
Si       2.72774423      -0.03551220       2.67507360       0.00000000
Si       0.00449604      -2.71946891      -2.68385533       0.00000000
Si      -0.02603142       2.72749988       2.68108369       0.00000000
Si      -2.71386515      -2.70334181       0.03066313       0.00000000
