10
Lattice="16.290000149 0.0 0.0 0.0 16.290000149 0.0 0.0 0.0 29.1751946751" Properties=species:S:1:pos:R:3:initial_magmoms:R:1 pbc="T T T"
Si       1.34784988       1.35436690      -1.35711336       0.00000000
Si      -1.34348518       1.36562329       1.35133667       0.00000000
Si       1.34356663      -1.35713620       1.36927941       0.00000000
Si      -1.37088496      -1.34897491      -1.35515862       0.00000000
Si      -2.68107338      -0.08175951       2.60764972       0.00000000
Si       2.67128798      -2.70718625      -0.02552830       0.00000000
Si       2.66290515       2.72078840       0.03670239       0.00000000
Si      -0.02106297       2.71019990      -2.69882221       0.00000000
Si       2.69166677       0.02184489       2.72058690       0.00000000
Si      -0.02707398      -2.68379381      -2.73890893       0.00000000
