10
Lattice="16.290000149 0.0 0.0 0.0 16.290000149 0.0 0.0 0.0 29.1751946751" Properties=species:S:1:pos:R:3:initial_magmoms:R:1 pbc="T T T"
Si       1.33450939       1.36380207      -1.36997962       0.00000000
Si      -1.36202320      -1.34247194      -1.37797362       0.00000000
Si      -1.42459309       1.36269435       1.29864627       0.00000000
Si       1.40186854      -1.34015876       1.36043933       0.00000000
Si       0.05831820      -2.71892809       2.67320639       0.00000000
Si       2.70510113      -2.68708114      -0.07153758       0.00000000
Si       2.69555519       2.70942124      -0.00227567       0.00000000
Si      -0.12991275       2.79862528       2.61164673       0.00000000
Si      -2.72565911      -2.69221249      -0.02789149       0.00000000
Si       2.63210564       0.09226656       2.78833171       0.00000000
