10
Lattice="16.290000149 0.0 0.0 0.0 16.290000149 0.0 0.0 0.0 29.1751946751" Properties=species:S:1:pos:R:3:initial_magmoms:R:1 pbc="T T T"
Si       0.73783927      -1.32408379       1.78893541       0.00000000
Si      -1.76153546       0.97489135       1.25444585       0.00000000
Si       1.39013974       1.82404019      -0.75324518       0.00000000
Si       0.10709046      -1.73156186      -1.80609043       0.00000000
H       -2.14441562      -0.24824331      -1.31422582       0.00000000
Si       2.88091911       0.55905652      -2.03771230       0.00000000
Si       2.73383669      -2.21289715       0.81521329       0.00000000
Si      -0.77910184      -3.17217453       1.72256184       0.00000000
Si      -2.79096573       0.59059396      -2.39455410       0.00000000
Si       1.54152271      -3.35862418      -0.87788161       0.00000000
