10
Lattice="16.290000149 0.0 0.0 0.0 16.290000149 0.0 0.0 0.0 29.1751946751" Properties=species:S:1:pos:R:3:initial_magmoms:R:1 pbc="T T T"
Si       1.30168504      -1.34806267       1.41785611       0.00000000
Si      -1.37655388       1.34977312       1.35168677       0.00000000
Si      -1.43272180      -1.40437720      -1.23764093       0.00000000
Si       1.43037604       1.38693061      -1.28256782       0.00000000
Si      -2.62925489      -0.00509877      -2.68014717       0.00000000
Si       2.71933859      -0.06213006      -2.61056433       0.00000000
Si       0.05427828       2.65351070      -2.69667491       0.00000000
Si      -0.11719026      -2.72777356      -2.63636979       0.00000000
Si       2.63360432      -2.76640529       0.13216363       0.00000000
Si      -0.03106503       2.70782156       2.71472269       0.00000000
