10
Lattice="16.290000149 0.0 0.0 0.0 16.290000149 0.0 0.0 0.0 29.1751946751" Properties=species:S:1:pos:R:3:initial_magmoms:R:1 pbc="T T T"
Si      -1.81600922      -1.32993190      -0.60993662       0.00000000
Si       1.19386153       1.32322042      -1.51022478       0.00000000
Si       1.28379862      -1.17672282       1.55941416       0.00000000
Si      -1.35299854       1.52853958       1.16213553       0.00000000
Si      -0.64733203      -1.17679938       2.91051742       0.00000000
H        3.08645004      -0.51782001      -0.78974334       0.00000000
Si      -0.21537009      -2.87194332      -1.67637751       0.00000000
Si       2.73108368       2.05281695       0.08586260       0.00000000
Si      -3.05403294       0.53361153      -1.55883065       0.00000000
Si      -2.56132559      -1.69390915       1.64066707       0.00000000
