10
Lattice="16.290000149 0.0 0.0 0.0 16.290000149 0.0 0.0 0.0 29.1751946751" Properties=species:S:1:pos:R:3:initial_magmoms:R:1 pbc="T T T"
Si       1.32828661       1.33209847      -1.40186810       0.00000000
Si      -1.19957932       1.46601856       1.43594473       0.00000000
Si       1.47188296      -1.21228552       1.45245789       0.00000000
Si      -1.56675592      -1.11689128      -1.46943785       0.00000000
H        1.83036071      -3.02177874      -0.79169808       0.00000000
Si      -0.18011853       2.63648765      -2.70188560       0.00000000
Si      -2.52855011       0.08597862       2.80960042       0.00000000
Si       2.93024523       2.44890830      -0.06094698       0.00000000
H        2.03203091       3.17658261       0.92642913       0.00000000
Si      -2.61874784       2.87495697       0.21785118       0.00000000
