10
Lattice="16.290000149 0.0 0.0 0.0 16.290000149 0.0 0.0 0.0 29.1751946751" Properties=species:S:1:pos:R:3:initial_magmoms:R:1 pbc="T T T"
Si      -1.42879591       1.44510220       1.12085263       0.00000000
Si      -1.35936793      -1.30787524      -1.39019803       0.00000000
Si       1.34933329       1.39119859      -1.34532658       0.00000000
Si       1.33154461      -1.31457043       1.44338441       0.00000000
H       -0.58415941       2.38029482       1.92932645       0.00000000
Si      -2.70083315      -2.64031580      -0.01741759       0.00000000
Si       0.01334151      -2.66805767      -2.71063816       0.00000000
Si       2.71699283      -2.66494628       0.08831331       0.00000000
Si       2.73233801       0.04702923      -2.68152132       0.00000000
Si      -2.72437220       2.73891918      -0.30508501       0.00000000
