10
Lattice="16.290000149 0.0 0.0 0.0 16.290000149 0.0 0.0 0.0 29.1751946751" Properties=species:S:1:pos:R:3:initial_magmoms:R:1 pbc="T T T"
Si      -1.37622808      -1.36474363      -1.30725295       0.00000000
Si      -1.38386809       1.31720941       1.35760933       0.00000000
Si       1.33032286      -1.36422235       1.37709836       0.00000000
Si       1.32512635       1.38714238      -1.38135794       0.00000000
Si      -2.69552261       0.02608029      -2.64665696       0.00000000
Si      -0.01433520       2.67887423       2.68653945       0.00000000
Si      -0.04764825      -2.72171693      -2.67554040       0.00000000
Si       2.68876226       0.00021177       2.70990878       0.00000000
Si       2.74989864       0.02881701      -2.65383406       0.00000000
Si       2.69544116      -2.71093295       0.02608262       0.00000000
