10
Lattice="16.290000149 0.0 0.0 0.0 16.290000149 0.0 0.0 0.0 29.1751946751" Properties=species:S:1:pos:R:3:initial_magmoms:R:1 pbc="T T T"
Si       1.35773893      -1.35734797      -1.34211731       0.00000000
Si       1.37282347       1.34770429       1.34421792       0.00000000
Si      -1.34425081      -1.35403784       1.36735385       0.00000000
Si      -1.33097446       1.36886500      -1.37251786       0.00000000
Si       0.00244350       2.70493823       2.67767019       0.00000000
Si       2.70959717       0.01531260      -2.67717421       0.00000000
Si       0.04522104      -2.70182684       2.70173973       0.00000000
Si      -0.00019548      -2.72803746      -2.68020843       0.00000000
Si      -2.68874597       2.72440478      -0.01665904       0.00000000
Si      -2.70138701      -2.71694396       0.01724254       0.00000000
