10
Lattice="16.290000149 0.0 0.0 0.0 16.290000149 0.0 0.0 0.0 29.1751946751" Properties=species:S:1:pos:R:3:initial_magmoms:R:1 pbc="T T T"
Si       0.69050053      -2.05233314      -0.75975124       0.00000000
Si      -0.61450768      -0.51067521       2.18317982       0.00000000
Si      -1.81887626       0.88645294      -1.14912339       0.00000000
Si       1.76515184       1.48483351      -0.33323907       0.00000000
H        1.38227167       0.26169885      -2.90191074       0.00000000
Si       0.15280020       1.53196048       3.07077677       0.00000000
Si      -2.83903752      -1.26644977      -1.53928327       0.00000000
Si       2.13656384       2.13954491       1.89043591       0.00000000
Si      -0.69732604       2.32743377      -2.69847211       0.00000000
Si       0.78677443       3.34384833      -1.22868415       0.00000000
