10
Lattice="16.290000149 0.0 0.0 0.0 16.290000149 0.0 0.0 0.0 29.1751946751" Properties=species:S:1:pos:R:3:initial_magmoms:R:1 pbc="T T T"
Si      -0.08247627       0.68403340       2.23069454       0.00000000
Si       0.72894493      -2.18725180      -0.41878074       0.00000000
Si       1.93727198       1.03519693      -0.89731229       0.00000000
Si      -2.20450943       0.38664315      -0.80573135       0.00000000
H        2.53048862      -0.25777296       1.40382284       0.00000000
Si       2.64293849      -1.67014204       0.85106960       0.00000000
Si      -2.15896259       2.68037291      -0.13618981       0.00000000
Si       1.47426130      -1.82327456      -2.66938444       0.00000000
Si       1.00354546       2.08290458      -2.73068152       0.00000000
Si       0.23623758       0.04026888      -3.61827847       0.00000000
