10
Lattice="16.290000149 0.0 0.0 0.0 16.290000149 0.0 0.0 0.0 29.1751946751" Properties=species:S:1:pos:R:3:initial_magmoms:R:1 pbc="T T T"
Si      -1.37409409      -1.35575155       1.33467763       0.00000000
Si      -1.38168523       1.35757603      -1.32583755       0.00000000
Si       1.35088084       1.36858319       1.35250367       0.00000000
Si       1.35107632      -1.37777563      -1.34672699       0.00000000
Si      -0.00410508      -2.69742854       2.68785234       0.00000000
Si      -0.02982699       2.73023661      -2.66089446       0.00000000
Si      -2.73961965      -0.01311345      -2.66392868       0.00000000
Si      -2.69420312       0.01309716       2.71801949       0.00000000
Si       2.73235430      -0.03499092      -2.68108369       0.00000000
Si       2.72686457       0.02319696       2.68931109       0.00000000
