10
Lattice="16.290000149 0.0 0.0 0.0 16.290000149 0.0 0.0 0.0 29.1751946751" Properties=species:S:1:pos:R:3:initial_magmoms:R:1 pbc="T T T"
Si       1.35954712      -1.35288451      -1.35244532       0.00000000
Si       1.37386603       1.36376623       1.33243114       0.00000000
Si      -1.35363385      -1.34729704       1.37432672       0.00000000
Si      -1.35490447       1.35065278      -1.36983374       0.00000000
Si       0.00115659       2.72394867       2.65287128       0.00000000
Si       2.68382639      -2.71643897       0.04055352       0.00000000
Si      -2.71467965      -2.69291621       0.00662277       0.00000000
Si      -2.72298755       0.04059468       2.68510987       0.00000000
Si      -0.00073305      -2.69635340      -2.71583135       0.00000000
Si       2.71567334       0.02393001      -2.70850837       0.00000000
