10
Lattice="16.290000149 0.0 0.0 0.0 16.290000149 0.0 0.0 0.0 29.1751946751" Properties=species:S:1:pos:R:3:initial_magmoms:R:1 pbc="T T T"
Si      -1.66723265       0.16494277       0.09633649       0.00000000
Si      -0.12406464       1.96145123       0.57291330       0.00000000
H        0.13541877       0.82384558      -2.25282101       0.00000000
Si       1.14668569      -0.32152388      -2.23175652       0.00000000
Si      -1.32481684      -2.16417050       0.44010781       0.00000000
Si       0.31519521      -2.27789099      -1.23396486       0.00000000
Si       2.12278250       1.43059270       0.86075577       0.00000000
Si       3.04029558       0.57301379      -1.12692107       0.00000000
Si       2.36488709      -0.42625164       2.41468499       0.00000000
Si      -2.95103127       1.34166559      -1.46307766       0.00000000
