10
Lattice="16.290000149 0.0 0.0 0.0 16.290000149 0.0 0.0 0.0 29.1751946751" Properties=species:S:1:pos:R:3:initial_magmoms:R:1 pbc="T T T"
Si      -0.62796322       0.40161366      -2.14822793       0.00000000
Si       1.48716298      -1.79978438       0.11684665       0.00000000
Si       0.97195915       1.99612775       0.87855264       0.00000000
Si      -2.12488391      -0.58586986       1.00146773       0.00000000
H        0.08379576      -0.82831393       2.57021795       0.00000000
H        0.73546093      -1.24986655       2.61584795       0.00000000
H        2.28319013       1.53414334       1.48492988       0.00000000
H        2.85576735       1.41885901      -0.84768528       0.00000000
Si      -2.34900173       1.54867402       1.91398030       0.00000000
Si      -0.17454735      -3.32262246       0.84975672       0.00000000
