10
Lattice="16.290000149 0.0 0.0 0.0 16.290000149 0.0 0.0 0.0 29.1751946751" Properties=species:S:1:pos:R:3:initial_magmoms:R:1 pbc="T T T"
H       -1.44234919       0.28243602       0.44115812       0.00000000
Si       0.45045108      -2.13726431       0.87163812       0.00000000
Si      -0.35873838       0.22893966      -2.35820181       0.00000000
Si       1.21834540       1.58456089       1.41803116       0.00000000
H        0.17989047       2.69487101      -0.97876943       0.00000000
H        1.53501649      -1.40136355      -2.10297721       0.00000000
H        0.36834948      -3.20741958      -0.19535710       0.00000000
Si      -0.78915277       2.95347477       1.49791284       0.00000000
Si       3.41565465       0.15931620       0.37043745       0.00000000
Si      -2.66624948       2.24314931       0.22304436       0.00000000
