10
Lattice="16.290000149 0.0 0.0 0.0 16.290000149 0.0 0.0 0.0 29.1751946751" Properties=species:S:1:pos:R:3:initial_magmoms:R:1 pbc="T T T"
Si      -1.36879984      -1.34338744       1.34281751       0.00000000
Si      -1.38142459       1.34586352      -1.33707000       0.00000000
Si       1.34861653      -1.36585135      -1.35617975       0.00000000
Si       1.36604683       1.36300060       1.35183265       0.00000000
Si       0.00052128       2.70563870      -2.64677366       0.00000000
Si      -0.00100998      -2.70068654       2.66993877       0.00000000
Si       2.70971120      -0.00244350      -2.68601430       0.00000000
Si      -2.70883154      -2.70663239      -0.02211480       0.00000000
Si      -2.70067025       2.71673219       0.05067731       0.00000000
Si      -2.68714955       0.02031363       2.73275296       0.00000000
