10
Lattice="16.290000149 0.0 0.0 0.0 16.290000149 0.0 0.0 0.0 29.1751946751" Properties=species:S:1:pos:R:3:initial_magmoms:R:1 pbc="T T T"
Si      -1.45611424      -1.29868768       1.30313925       0.00000000
Si       1.36935370      -1.38789172      -1.31078315       0.00000000
Si      -1.36366849       1.32519151      -1.38100784       0.00000000
Si       1.38267892       1.35091342       1.34054184       0.00000000
Si      -0.05520681       2.72254772       2.57258114       0.00000000
Si      -0.21418092      -2.68684004       2.67641566       0.00000000
Si       2.72414414       2.68335398      -0.03223859       0.00000000
Si       2.72298755      -0.04059468      -2.68510987       0.00000000
Si       0.00830790      -2.73351089      -2.67848710       0.00000000
Si      -0.00987174       2.67657734      -2.74264335       0.00000000
