10
Lattice="16.290000149 0.0 0.0 0.0 16.290000149 0.0 0.0 0.0 29.1751946751" Properties=species:S:1:pos:R:3:initial_magmoms:R:1 pbc="T T T"
Si      -1.34658028      -1.01885806       1.63541554       0.00000000
Si       1.23087241      -1.43054057      -1.41733096       0.00000000
Si      -1.35278677       1.30904812      -1.42771733       0.00000000
Si       1.42724836       1.27176031       1.40379367       0.00000000
Si       0.08785197      -2.64592038       2.56362436       0.00000000
Si      -0.06353100       2.53674398       2.68826079       0.00000000
Si       2.72256825       2.62941779      -0.04309176       0.00000000
Si      -1.45367074       0.71270380       3.44150596       0.00000000
Si      -2.74427859       2.66405033      -0.11541707       0.00000000
Si       2.61477308      -0.09443313      -2.79900983       0.00000000
