10
Lattice="16.290000149 0.0 0.0 0.0 16.290000149 0.0 0.0 0.0 29.1751946751" Properties=species:S:1:pos:R:3:initial_magmoms:R:1 pbc="T T T"
Si      -1.33758820      -1.44738280       1.25631306       0.00000000
Si       1.34348518      -1.36562329      -1.35133667       0.00000000
Si      -1.38785914       1.34200279      -1.34731049       0.00000000
Si       1.25770204       1.36858807       1.45552129       0.00000000
Si      -2.69878061      -0.07657929       2.51866538       0.00000000
Si       2.63707409       2.69503391       0.06622769       0.00000000
Si      -0.02767671       2.70550838      -2.68931109       0.00000000
Si       2.69133506      -0.01125639      -2.70845002       0.00000000
Si       2.68705181      -2.72275949       0.01794274       0.00000000
Si      -0.02739978      -2.71459820      -2.70649528       0.00000000
