10
Lattice="16.290000149 0.0 0.0 0.0 16.290000149 0.0 0.0 0.0 29.1751946751" Properties=species:S:1:pos:R:3:initial_magmoms:R:1 pbc="T T T"
Si       1.34982199      -1.39815116      -1.29196515       0.00000000
Si       1.39589011       1.34200279       1.32831744       0.00000000
Si      -1.32264213      -1.38405054       1.36297757       0.00000000
Si      -1.29294871       1.35233065      -1.43334814       0.00000000
Si      -2.64152990       2.67880907      -0.02468221       0.00000000
Si       2.70205490      -0.06786414      -2.63183596       0.00000000
Si       0.03811860       2.69754257       2.68417626       0.00000000
Si      -2.63652154      -2.76747555      -0.00201309       0.00000000
Si      -2.70084944      -0.03530043       2.70497817       0.00000000
Si      -2.65712795      -0.04137660      -2.75195607       0.00000000
