10
Lattice="16.290000149 0.0 0.0 0.0 16.290000149 0.0 0.0 0.0 29.1751946751" Properties=species:S:1:pos:R:3:initial_magmoms:R:1 pbc="T T T"
Si       1.33867312       1.46627920      -1.23576730       0.00000000
Si       1.38790150      -1.33944526       1.37039099       0.00000000
Si      -1.36176908       1.45622827       1.28885507       0.00000000
Si      -1.21562497      -1.49201740      -1.39943489       0.00000000
Si      -2.67982557      -2.66657528       0.01576336       0.00000000
Si      -2.66404056       0.10212201       2.72503320       0.00000000
Si       2.78540432       0.27614808      -2.59631808       0.00000000
Si      -0.01759157       2.71060715      -2.69352983       0.00000000
Si       0.04074292      -2.66620061       2.75286634       0.00000000
Si       0.02989215       2.74765062       2.71811868       0.00000000
