10
Lattice="16.290000149 0.0 0.0 0.0 16.290000149 0.0 0.0 0.0 29.1751946751" Properties=species:S:1:pos:R:3:initial_magmoms:R:1 pbc="T T T"
Si      -1.31228299      -1.33527339       1.36732467       0.00000000
Si      -1.46938375       1.29269296      -1.27142581       0.00000000
Si       1.23181756       1.36166156       1.44408461       0.00000000
Si       1.37925509      -1.39543236      -1.29882132       0.00000000
Si       2.61337899      -0.09039158       2.59799274       0.00000000
Si      -0.08548308       2.62880040      -2.65310468       0.00000000
Si       2.64165843       2.65580922       0.05525782       0.00000000
Si      -2.61240419       0.07731316       2.70952950       0.00000000
Si       2.71701597      -0.04582214      -2.66885928       0.00000000
Si      -2.58650309      -2.79892991       0.06803655       0.00000000
