10
Lattice="16.290000149 0.0 0.0 0.0 16.290000149 0.0 0.0 0.0 29.1751946751" Properties=species:S:1:pos:R:3:initial_magmoms:R:1 pbc="T T T"
Si       1.36363591       1.34974054      -1.35008213       0.00000000
Si       1.37432215      -1.35179308       1.34491812       0.00000000
Si      -1.35123922       1.36153450       1.36119788       0.00000000
Si      -1.36945144      -1.36179514      -1.35250367       0.00000000
Si      -0.00263898      -2.67199985       2.70763312       0.00000000
Si      -0.02583594       2.69752954      -2.68446801       0.00000000
Si       2.66473451      -2.72026712      -0.06719047       0.00000000
Si       2.68374494      -0.01910817      -2.73342399       0.00000000
Si       2.72565911       2.69221249       0.02789149       0.00000000
Si      -2.68900010       0.01192428       2.73123585       0.00000000
