10
Lattice="16.290000149 0.0 0.0 0.0 16.290000149 0.0 0.0 0.0 29.1751946751" Properties=species:S:1:pos:R:3:initial_magmoms:R:1 pbc="T T T"
Si      -1.23683455       1.36643779       1.41902312       0.00000000
Si       1.32318784      -1.37433844       1.33333557       0.00000000
Si       1.34995932       1.40968774      -1.30518151       0.00000000
Si      -1.38737044      -1.36003582      -1.33003877       0.00000000
H       -1.88323805       0.54007866       2.49590873       0.00000000
Si       2.61058167       0.03595203       2.65243365       0.00000000
Si      -2.81645958       2.45131922       0.09727010       0.00000000
Si      -0.08938323       2.75846718      -2.59195347       0.00000000
Si       2.68806668       0.04610070      -2.67822452       0.00000000
Si      -0.00436572      -2.70420518      -2.66623352       0.00000000
