10
Lattice="16.290000149 0.0 0.0 0.0 16.290000149 0.0 0.0 0.0 29.1751946751" Properties=species:S:1:pos:R:3:initial_magmoms:R:1 pbc="T T T"
Si      -1.39589011      -1.34200279      -1.32831744       0.00000000
Si      -1.35777151       1.35553978       1.35585882       0.00000000
Si       1.33097446      -1.36886500       1.37251786       0.00000000
Si       1.36233271       1.34428339      -1.37082570       0.00000000
Si      -0.04606812      -2.74015396      -2.62028258       0.00000000
Si       2.70782156       2.70233183      -0.00778978       0.00000000
Si      -2.70202721       2.71295291      -0.00673947       0.00000000
Si       2.68871339      -2.72621297       0.03040055       0.00000000
Si       2.70379793      -0.02116071       2.71673578       0.00000000
Si      -0.01053963       2.71845893       2.70672869       0.00000000
