10
Lattice="16.290000149 0.0 0.0 0.0 16.290000149 0.0 0.0 0.0 29.1751946751" Properties=species:S:1:pos:R:3:initial_magmoms:R:1 pbc="T T T"
Si      -1.37055428      -1.37235921      -1.33015548       0.00000000
Si       1.34788837       1.35294153      -1.37674826       0.00000000
Si       1.40614141      -1.33772667       1.33321887       0.00000000
Si      -1.39635764       1.33689588       1.34897348       0.00000000
Si      -0.01703608       2.69948923       2.68178389       0.00000000
Si       0.06838053      -2.68733689       2.70325684       0.00000000
Si      -2.70358128      -0.00686786      -2.70206065       0.00000000
Si      -2.70071424       2.71682179      -0.02596592       0.00000000
Si      -0.00123804      -2.71222801      -2.71101744       0.00000000
Si       2.70333041       2.72144815      -0.03932816       0.00000000
