10
Lattice="16.290000149 0.0 0.0 0.0 16.290000149 0.0 0.0 0.0 29.1751946751" Properties=species:S:1:pos:R:3:initial_magmoms:R:1 pbc="T T T"
Si       1.43917264       1.33120252       1.21009955       0.00000000
Si      -1.24193332       1.38815236      -1.37327641       0.00000000
Si       1.52008507      -1.31820636      -1.19659143       0.00000000
Si      -1.16105347      -1.44141578       1.50234747       0.00000000
H        2.08572275       0.49236525       2.29042783       0.00000000
Si       2.50303997      -2.17707544       0.79169808       0.00000000
Si       0.75681712      -2.49930468       2.28505960       0.00000000
Si       0.00612504       2.55810017       2.49386647       0.00000000
Si      -2.41768037      -2.75871153       0.03171344       0.00000000
Si      -2.53661366      -0.04777857      -2.68627687       0.00000000
