10
Lattice="16.290000149 0.0 0.0 0.0 16.290000149 0.0 0.0 0.0 29.1751946751" Properties=species:S:1:pos:R:3:initial_magmoms:R:1 pbc="T T T"
Si      -1.33965215       1.35889552      -1.36236489       0.00000000
Si       1.35092971       1.38696319       1.32254075       0.00000000
Si       1.38748447      -1.35127180      -1.33470681       0.00000000
Si      -1.35108773      -1.36474363       1.36420293       0.00000000
Si       2.66173715      -0.03971502       2.61958238       0.00000000
Si      -2.66737349       2.70894557       0.03244282       0.00000000
Si       0.04025259      -2.71419095      -2.68557667       0.00000000
Si      -2.69097770       0.00306252      -2.72175391       0.00000000
Si      -2.69293250      -2.72730440       0.01099905       0.00000000
Si       0.01945026       2.71109585      -2.72446720       0.00000000
