10
Lattice="16.290000149 0.0 0.0 0.0 16.290000149 0.0 0.0 0.0 29.1751946751" Properties=species:S:1:pos:R:3:initial_magmoms:R:1 pbc="T T T"
Si      -1.34811969       1.35975563      -1.35510027       0.00000000
Si       1.35713620       1.36290612       1.35011131       0.00000000
Si      -1.37564653      -1.34759026       1.35154089       0.00000000
Si       1.31924566      -1.37086867      -1.38774731       0.00000000
Si       0.01352070      -2.69641856       2.68207565       0.00000000
Si      -2.66199910      -0.02366937      -2.72009093       0.00000000
Si       2.70119153      -0.01109349      -2.69745097       0.00000000
Si      -0.02652012       2.71757927       2.68581007       0.00000000
Si      -2.69070180      -2.71401176      -0.04227486       0.00000000
Si       2.70067025      -2.71673219      -0.05067731       0.00000000
