10
Lattice="16.28999089631971 0.0 0.0 0.0 16.28999089631971 0.0 0.0 0.0 34.529650657227435" Properties=species:S:1:pos:R:3:initial_magmoms:R:1 pbc="T T T"
Si       1.34626853       1.34703639       1.37950520       0.00000000
Si      -1.36667037      -1.37084585       1.37194321       0.00000000
Si       1.34665623      -1.40210636      -1.39030954       0.00000000
Si      -1.43179779       1.29121056      -1.43849914       0.00000000
Si      -0.46192377      -2.45858780      -2.54470926       0.00000000
Si      -2.19140049      -0.61318818      -2.80968412       0.00000000
Si       2.69443382       2.67906969       0.00011395       0.00000000
Si      -0.01133638       2.70107748       2.73583064       0.00000000
Si       2.70230189      -0.01066995       2.73697012       0.00000000
Si      -2.74874655       2.69057043       0.00396055       0.00000000
