10
Lattice="16.28999089631971 0.0 0.0 0.0 16.28999089631971 0.0 0.0 0.0 34.529650657227435" Properties=species:S:1:pos:R:3:initial_magmoms:R:1 pbc="T T T"
Si      -0.09284974       1.16447436      -2.01787938       0.00000000
Si       1.00704943      -2.09834748      -0.27060902       0.00000000
Si      -1.96874980      -0.35443782       1.24907628       0.00000000
Si       1.27765891       1.23869160       1.55604505       0.00000000
Si       2.32784263       1.16813961      -2.14532839       0.00000000
Si      -1.86791470       2.69392617      -1.31979304       0.00000000
Si      -2.10014494       1.70647524       2.46614356       0.00000000
Si       2.72103436      -1.23898482      -2.21000247       0.00000000
Si      -3.64516999      -0.74008728      -0.32257618       0.00000000
Si       1.11523132       0.10334376       3.62520099       0.00000000
