10
Lattice="16.28999089631971 0.0 0.0 0.0 16.28999089631971 0.0 0.0 0.0 34.529650657227435" Properties=species:S:1:pos:R:3:initial_magmoms:R:1 pbc="T T T"
Si       1.43493723       1.31020470       1.43187777       0.00000000
Si      -1.30064899      -1.36508571       1.50924841       0.00000000
Si      -1.45984790       1.63624905      -1.20684649       0.00000000
Si       0.21967065      -1.60181199      -1.92257749       0.00000000
Si      -1.05065613       0.07682364      -3.16509314       0.00000000
Si       2.48665221      -2.81981529      -0.03867323       0.00000000
Si      -1.29494911      -3.32245953      -1.27704531       0.00000000
Si       0.01650177       2.60424677       2.91473719       0.00000000
Si      -2.84448554      -2.70751203       0.29203300       0.00000000
Si       2.46273849       3.10976330       0.13052215       0.00000000
