10
Lattice="16.28999089631971 0.0 0.0 0.0 16.28999089631971 0.0 0.0 0.0 34.529650657227435" Properties=species:S:1:pos:R:3:initial_magmoms:R:1 pbc="T T T"
Si       1.38908088      -1.23576266      -1.41429039       0.00000000
Si       1.35257499       1.34454402       1.36549306       0.00000000
Si      -1.36155078      -1.36905395       1.36269616       0.00000000
Si      -1.39312080       1.27884645      -1.47850522       0.00000000
Si      -0.27044658      -2.23447161      -2.79462228       0.00000000
Si      -2.26048185      -0.59375421      -2.74831799       0.00000000
Si       2.71676475       2.68789887      -0.02502020       0.00000000
Si      -2.72723922       2.67851583      -0.01210265       0.00000000
Si       2.42970237       0.20421144      -2.95580678       0.00000000
Si      -0.00175932       2.70210375       2.72368310       0.00000000
