10
Lattice="16.28999089631971 0.0 0.0 0.0 16.28999089631971 0.0 0.0 0.0 34.529650657227435" Properties=species:S:1:pos:R:3:initial_magmoms:R:1 pbc="T T T"
Si      -0.03456738      -2.16681109      -0.87094187       0.00000000
Si       2.08331181       0.67305393       0.83002421       0.00000000
Si      -0.13678713       1.47411468      -1.83539008       0.00000000
Si      -1.73121975       0.30450897       1.68646361       0.00000000
Si      -2.17608336      -2.81037428      -0.15020406       0.00000000
Si       0.94337019       3.34015047      -0.85039671       0.00000000
Si      -3.41975970      -0.94277561       0.61576760       0.00000000
Si       1.56569706       2.93656572       1.46488672       0.00000000
Si      -2.43897138       1.98718452      -2.05631091       0.00000000
Si       2.42473392      -0.15530886       2.96720360       0.00000000
