10
Lattice="16.28999089631971 0.0 0.0 0.0 16.28999089631971 0.0 0.0 0.0 34.529650657227435" Properties=species:S:1:pos:R:3:initial_magmoms:R:1 pbc="T T T"
Si      -2.19979738      -0.14484091      -0.71559288       0.00000000
Si       0.54088827      -2.31387625      -0.08294027       0.00000000
Si       1.60602621       0.92273402      -1.55815136       0.00000000
Si      -0.24217691       0.80416074       2.28655474       0.00000000
Si      -2.83691557      -1.84609261       0.82715824       0.00000000
Si       2.82279147      -2.08808056      -0.32095328       0.00000000
Si       2.84970255      -0.94486465      -2.32412303       0.00000000
Si       3.29042850      -0.95359609       1.69903241       0.00000000
Si       1.38317901       2.43448674       2.68830745       0.00000000
Si      -3.36544462       1.89414744      -0.59173495       0.00000000
