10
Lattice="16.28999089631971 0.0 0.0 0.0 16.28999089631971 0.0 0.0 0.0 34.529650657227435" Properties=species:S:1:pos:R:3:initial_magmoms:R:1 pbc="T T T"
Si       1.40450751      -1.29212280      -1.37880425       0.00000000
Si      -1.32825402       1.39748652      -1.38957751       0.00000000
Si       0.80822835       1.78010604       1.36285154       0.00000000
Si      -0.84305637      -1.90356795       1.38767838       0.00000000
Si      -1.09905372       3.35347569       1.36088335       0.00000000
Si      -2.66799249      -2.70435177       0.04854872       0.00000000
Si       0.03445335      -2.65210974      -2.73340320       0.00000000
Si       2.65939137      -2.74352922      -0.03518573       0.00000000
Si      -2.67405237       0.05444118      -2.73999837       0.00000000
Si       2.66962149       2.74639626       0.13887833       0.00000000
