10
Lattice="16.28999089631971 0.0 0.0 0.0 16.28999089631971 0.0 0.0 0.0 34.529650657227435" Properties=species:S:1:pos:R:3:initial_magmoms:R:1 pbc="T T T"
Si      -0.51683283       2.26571094       0.32530402       0.00000000
Si      -2.04221214      -0.77786379      -0.98868804       0.00000000
Si       0.67686579      -0.80659935       2.15741378       0.00000000
Si       1.81353312      -0.43442172      -1.61567779       0.00000000
Si       1.00517445      -2.99736000       1.43474232       0.00000000
Si      -1.48338369      -3.06647847      -1.39410089       0.00000000
Si       1.46463390       3.48478938       0.17133622       0.00000000
Si      -1.62859275       2.39458113       2.44349209       0.00000000
Si      -1.87165584       2.97608526      -1.51440226       0.00000000
Si      -3.74441940      -0.76957218       0.67678153       0.00000000
