10
Lattice="16.28999089631971 0.0 0.0 0.0 16.28999089631971 0.0 0.0 0.0 34.529650657227435" Properties=species:S:1:pos:R:3:initial_magmoms:R:1 pbc="T T T"
Si      -0.86034006       2.18373966       0.32036628       0.00000000
Si       1.35482301      -0.71037432       1.83970629       0.00000000
Si       1.54543230       0.55113957      -1.75452159       0.00000000
Si      -1.17545382      -1.97656344      -0.75613071       0.00000000
Si      -0.48469266      -2.08275795      -3.06571675       0.00000000
Si       3.63498318       0.65420640      -0.71255427       0.00000000
Si       3.33628974       0.50870412       1.68573849       0.00000000
Si      -0.17055630      -3.75394905       0.52571423       0.00000000
Si      -2.63601522       2.42649324      -1.30183762       0.00000000
Si       1.87165584      -2.97608526       1.51440226       0.00000000
