10
Lattice="16.28999089631971 0.0 0.0 0.0 16.28999089631971 0.0 0.0 0.0 34.529650657227435" Properties=species:S:1:pos:R:3:initial_magmoms:R:1 pbc="T T T"
Si      -1.97530911      -1.10231172      -0.61020833       0.00000000
Si       0.26995788      -1.03861782       2.12419624       0.00000000
Si      -0.64306404       2.21873058       0.58873087       0.00000000
Si       1.79833455      -0.26104725      -1.57648661       0.00000000
Si      -0.95444739      -3.22613676      -0.80692386       0.00000000
Si      -3.06260145      -0.90616383       1.48639870       0.00000000
Si       1.41167511       3.22696755       0.12088837       0.00000000
Si       0.05181849      -3.29377284       1.42331300       0.00000000
Si      -1.59850512      -0.15656319       3.23273676       0.00000000
Si       1.47678624       1.48462173      -3.12099875       0.00000000
