10
Lattice="16.28999089631971 0.0 0.0 0.0 16.28999089631971 0.0 0.0 0.0 34.529650657227435" Properties=species:S:1:pos:R:3:initial_magmoms:R:1 pbc="T T T"
Si      -1.43493723      -1.31020470      -1.43187777       0.00000000
Si       1.30699557      -1.41229413       1.46384392       0.00000000
Si      -1.41843546       1.29404207       1.48285941       0.00000000
Si       1.02780126       1.79955860      -1.30135562       0.00000000
Si      -0.96223401       3.44027600      -1.25505133       0.00000000
Si      -2.77676896       2.63136998       0.09074052       0.00000000
Si      -2.73558622      -2.67529041       0.07737063       0.00000000
Si       2.68732872       2.79826755       0.07897626       0.00000000
Si       2.65210974      -0.05157414       2.85409821       0.00000000
Si      -0.06330294       2.66497625       2.85596281       0.00000000
