10
Lattice="16.28999089631971 0.0 0.0 0.0 16.28999089631971 0.0 0.0 0.0 34.529650657227435" Properties=species:S:1:pos:R:3:initial_magmoms:R:1 pbc="T T T"
Si       0.85388922       0.57633368      -2.17799346       0.00000000
Si       1.07152362       1.21324336       1.79433430       0.00000000
Si       0.23113881      -2.42883315      -0.08197344       0.00000000
Si      -2.36684645       0.60069212       0.46646131       0.00000000
Si      -0.32448051       0.53062720       3.56073410       0.00000000
Si      -1.58855519      -3.20765805      -1.47510750       0.00000000
Si      -0.24679350      -0.68924195      -3.83003099       0.00000000
Si      -0.40260735      -3.34929960       2.04636636       0.00000000
Si      -2.46672044       1.50388954       2.68723703       0.00000000
Si       0.15987006       2.62662892      -2.95100918       0.00000000
