10
Lattice="16.28999089631971 0.0 0.0 0.0 16.28999089631971 0.0 0.0 0.0 34.529650657227435" Properties=species:S:1:pos:R:3:initial_magmoms:R:1 pbc="T T T"
Si      -1.61987760      -1.08804168      -1.36473138       0.00000000
Si       1.38095217      -1.30934133       1.55655609       0.00000000
Si      -1.33281522       1.39564575       1.56605520       0.00000000
Si       1.26166050       1.44368496      -1.59608017       0.00000000
Si      -2.66049909      -2.52801578       0.17678500       0.00000000
Si       2.64533310       2.64668517       0.10820908       0.00000000
Si       2.72450250      -2.72593928       0.02999938       0.00000000
Si      -2.77988850       2.67411753       0.14210340       0.00000000
Si       0.01982493      -2.66277643       2.95152713       0.00000000
Si      -2.69700498       0.05229090       2.95656846       0.00000000
