10
Lattice="16.28999089631971 0.0 0.0 0.0 16.28999089631971 0.0 0.0 0.0 34.529650657227435" Properties=species:S:1:pos:R:3:initial_magmoms:R:1 pbc="T T T"
Si      -1.25488386       1.45140642      -1.34361852       0.00000000
Si       1.44519993      -1.29888315      -1.33481345       0.00000000
Si       1.51063686       1.14512184       1.41247068       0.00000000
Si      -1.75692537      -0.86340258       1.36903235       0.00000000
Si       3.32288307      -0.71516358       1.36174659       0.00000000
Si      -2.62493802       0.09141948      -2.69821747       0.00000000
Si       0.09580149      -2.62766564      -2.69946054       0.00000000
Si      -2.70817992      -2.64084714      -0.00321126       0.00000000
Si      -2.65939137       2.74352922       0.03518573       0.00000000
Si      -0.74020131      -1.63721668       3.37679454       0.00000000
