10
Lattice="16.28999089631971 0.0 0.0 0.0 16.28999089631971 0.0 0.0 0.0 34.529650657227435" Properties=species:S:1:pos:R:3:initial_magmoms:R:1 pbc="T T T"
Si      -2.02134465      -0.81328802       0.75481859       0.00000000
Si       1.53731988       0.56701906       1.63715524       0.00000000
Si      -0.85737528       1.66415056      -1.41996362       0.00000000
Si       0.63288279      -1.95730281      -1.15491387       0.00000000
Si      -0.05452263       0.83282299      -3.46550127       0.00000000
Si      -0.33379839      -1.53996930      -3.27607150       0.00000000
Si      -3.27427371      -1.16892577      -1.25201130       0.00000000
Si       2.01067470      -1.38707136       2.86033427       0.00000000
Si       3.46256982       1.43727973       0.54104540       0.00000000
Si      -1.69091829      -2.14190109       2.66517258       0.00000000
