10
Lattice="16.28999089631971 0.0 0.0 0.0 16.28999089631971 0.0 0.0 0.0 34.529650657227435" Properties=species:S:1:pos:R:3:initial_magmoms:R:1 pbc="T T T"
Si       1.90189008       1.02900672      -0.85012047       0.00000000
Si      -1.57157775      -0.69934599      -1.61861281       0.00000000
Si       0.26583651      -1.72549381       1.68162946       0.00000000
Si      -1.85244993       1.16030412       1.20159798       0.00000000
Si      -2.97303903      -0.82194453       0.28341953       0.00000000
Si      -0.58567437      -0.02785590       3.27065034       0.00000000
Si       1.10172528       3.22621821      -0.95692074       0.00000000
Si      -1.37138994       1.05062355      -3.19544472       0.00000000
Si      -1.92306708      -2.76977241       1.47942371       0.00000000
Si       1.87279614      -3.15005336      -0.68662249       0.00000000
