10
Lattice="16.28999089631971 0.0 0.0 0.0 16.28999089631971 0.0 0.0 0.0 34.529650657227435" Properties=species:S:1:pos:R:3:initial_magmoms:R:1 pbc="T T T"
Si       1.35640314      -1.35698958      -1.35749944       0.00000000
Si       1.35780408       1.35684297       1.35673979       0.00000000
Si      -1.35777150       1.35725022      -1.35791380       0.00000000
Si      -1.35917244      -1.35931905       1.35798286       0.00000000
Si       0.00325800      -2.71042794       2.71713973       0.00000000
Si      -0.00291591      -2.71443528      -2.71417018       0.00000000
Si       2.71435383      -2.71428867      -0.00010359       0.00000000
Si       2.71368594      -0.00148239      -2.71517154       0.00000000
Si      -2.71101438       0.00081450       2.71814109       0.00000000
Si       2.71507059       2.71498914      -0.00034530       0.00000000
