10
Lattice="16.28999089631971 0.0 0.0 0.0 16.28999089631971 0.0 0.0 0.0 34.529650657227435" Properties=species:S:1:pos:R:3:initial_magmoms:R:1 pbc="T T T"
Si       1.35550719       1.35420399       1.35563484       0.00000000
Si       1.35272160      -1.35539316      -1.35777568       0.00000000
Si      -1.35930276       1.35778779      -1.35753397       0.00000000
Si      -1.35826020      -1.36568844       1.37265797       0.00000000
Si      -0.06760350       2.55990834       2.78243533       0.00000000
Si       2.71109583      -2.71160082       0.00770012       0.00000000
Si      -2.71384884      -2.70948312       0.00286596       0.00000000
Si       2.70712107       2.71823085       0.00127760       0.00000000
Si       2.71192662       0.00180819      -2.71479171       0.00000000
Si      -0.00275301      -2.71334385      -2.71437736       0.00000000
