10
Lattice="16.28999089631971 0.0 0.0 0.0 16.28999089631971 0.0 0.0 0.0 34.529650657227435" Properties=species:S:1:pos:R:3:initial_magmoms:R:1 pbc="T T T"
Si       1.28324475      -0.42441966       1.89174250       0.00000000
Si      -1.00846503      -1.77906348      -1.12742825       0.00000000
Si       1.75658328       0.98945460      -1.20650120       0.00000000
Si      -1.78399935       1.66171032       0.10724915       0.00000000
Si      -2.28366252      -0.40109238      -2.62832942       0.00000000
Si       0.43010487       2.31880005      -2.64535254       0.00000000
Si       2.57033394       2.66041764       0.24502254       0.00000000
Si      -2.02507506       2.06876484       2.49286952       0.00000000
Si      -0.99300582       3.52450440      -1.21855205       0.00000000
Si       2.65246812       1.47378888       2.40754671       0.00000000
