10
Lattice="16.28999089631971 0.0 0.0 0.0 16.28999089631971 0.0 0.0 0.0 34.529650657227435" Properties=species:S:1:pos:R:3:initial_magmoms:R:1 pbc="T T T"
Si       1.19674485       0.67056156      -1.87865575       0.00000000
Si      -2.03458842      -0.40524633      -1.15923008       0.00000000
Si      -0.53649486       1.92595041       1.36609733       0.00000000
Si       1.18988676      -1.97418510       0.86672925       0.00000000
Si      -0.08638587      -2.35937844       2.84835247       0.00000000
Si       1.77199362      -1.31339754      -2.99624305       0.00000000
Si       3.03981174       1.92679749      -1.02953664       0.00000000
Si      -2.35613673       1.34042265      -2.70374222       0.00000000
Si      -3.83292297      -0.14419908       0.41725653       0.00000000
Si      -1.69414371      -2.28012759      -2.66182320       0.00000000
