10
Lattice="16.28999089631971 0.0 0.0 0.0 16.28999089631971 0.0 0.0 0.0 34.529650657227435" Properties=species:S:1:pos:R:3:initial_magmoms:R:1 pbc="T T T"
Si       1.66672764       1.24768368       0.99963395       0.00000000
Si       1.13547816      -0.02029734      -2.03027553       0.00000000
Si      -0.16765668      -2.27111922       0.87867651       0.00000000
Si      -1.91435193       1.55470131      -0.42271222       0.00000000
Si      -1.58990400      -1.56871071       2.64984140       0.00000000
Si      -0.08656506      -3.27435516      -1.46043239       0.00000000
Si       1.96690347      -2.21514678      -2.10969377       0.00000000
Si       0.78413544       1.72515987       3.10532128       0.00000000
Si      -1.92964824       1.42630353      -2.85567276       0.00000000
Si       1.98158076       3.24622233      -0.28500790       0.00000000
