10
Lattice="16.28999089631971 0.0 0.0 0.0 16.28999089631971 0.0 0.0 0.0 34.529650657227435" Properties=species:S:1:pos:R:3:initial_magmoms:R:1 pbc="T T T"
Si      -1.35550719      -1.35420399      -1.35563484       0.00000000
Si      -1.42311069       1.20570435       1.42680049       0.00000000
Si       1.35161388       1.36402686      -1.35435724       0.00000000
Si       1.32647841      -1.32934545       1.43885135       0.00000000
Si       0.45028818       2.17572498       2.71337599       0.00000000
Si      -0.43010487      -2.31880005       2.64535254       0.00000000
Si      -2.21410422      -0.65708973       2.75260170       0.00000000
Si       2.14022907       0.34161759       2.89037508       0.00000000
Si      -0.00278559      -2.70959715      -2.71341052       0.00000000
Si       2.71353933       0.00241092      -2.71251275       0.00000000
