10
Lattice="16.28999089631971 0.0 0.0 0.0 16.28999089631971 0.0 0.0 0.0 34.529650657227435" Properties=species:S:1:pos:R:3:initial_magmoms:R:1 pbc="T T T"
Si      -0.56707119      -2.24862273       0.18414673       0.00000000
Si       0.49216977       0.44843112      -2.24021593       0.00000000
Si       1.54341234       0.66751533       1.70683612       0.00000000
Si      -1.85937318       1.31507541       0.77032241       0.00000000
Si      -0.55177488      -2.12022495       2.61710727       0.00000000
Si      -0.83544894       3.38030436      -0.01246521       0.00000000
Si       0.00949707       0.07812684       3.48566659       0.00000000
Si       2.02984803       2.22827652      -2.10302955       0.00000000
Si      -1.39258323       1.60524918      -3.06816835       0.00000000
Si      -2.53430046      -2.66033619      -1.06486049       0.00000000
