10
Lattice="16.28999089631971 0.0 0.0 0.0 16.28999089631971 0.0 0.0 0.0 34.529650657227435" Properties=species:S:1:pos:R:3:initial_magmoms:R:1 pbc="T T T"
Si      -1.90518066      -0.89554275       1.32364452       0.00000000
Si      -0.36305523       0.27543132      -2.44552934       0.00000000
Si       1.77416019      -1.75246191       0.21394484       0.00000000
Si       0.91116486       1.96647993       1.31700447       0.00000000
Si      -0.51085440      -2.10859389       2.82242902       0.00000000
Si       2.22068538       0.65132307       2.82555050       0.00000000
Si       3.53877444      -0.69141276       1.38482419       0.00000000
Si       0.71403957      -3.61080882       1.32149678       0.00000000
Si       2.01411189       3.34748097      -0.32848075       0.00000000
Si      -0.92432718      -1.92292047      -3.31408866       0.00000000
