10
Lattice="16.28999089631971 0.0 0.0 0.0 16.28999089631971 0.0 0.0 0.0 34.529650657227435" Properties=species:S:1:pos:R:3:initial_magmoms:R:1 pbc="T T T"
Si       1.35692442       1.35549090       1.35770662       0.00000000
Si      -1.35772100       1.35742941      -1.35763756       0.00000000
Si      -1.35780245      -1.35782037       1.35732680       0.00000000
Si       1.35778779      -1.35791811      -1.35753397       0.00000000
Si      -2.71141814      -0.00434943       2.71648366       0.00000000
Si      -0.00118917      -2.71446786      -2.71351411       0.00000000
Si      -2.71404402       2.71513575      -0.00020718       0.00000000
Si       2.71489140       2.71456560      -0.00003453       0.00000000
Si      -2.71482743      -0.00272043      -2.71465359       0.00000000
Si      -0.00061902       2.71494027      -2.71461906       0.00000000
