10
Lattice="16.28999089631971 0.0 0.0 0.0 16.28999089631971 0.0 0.0 0.0 34.529650657227435" Properties=species:S:1:pos:R:3:initial_magmoms:R:1 pbc="T T T"
Si      -1.35728280       1.35720477      -1.35687791       0.00000000
Si       1.35718506       1.35652547       1.35832816       0.00000000
Si       1.35773892      -1.35751300      -1.35715415       0.00000000
Si      -1.35821133      -1.35816460       1.35680885       0.00000000
Si      -2.70977634      -0.00225016       2.71472265       0.00000000
Si      -2.71383255      -0.00147656      -2.71399753       0.00000000
Si      -0.00141723      -2.71344373      -2.71451547       0.00000000
Si      -0.00516393      -2.71275955       2.71596572       0.00000000
Si      -2.71432125      -2.71505644       0.00006906       0.00000000
Si      -0.00245979       2.71455436      -2.71492983       0.00000000
