10
Lattice="16.28999089631971 0.0 0.0 0.0 16.28999089631971 0.0 0.0 0.0 34.529650657227435" Properties=species:S:1:pos:R:3:initial_magmoms:R:1 pbc="T T T"
Si       1.17369450      -0.03352482       2.02050364       0.00000000
Si      -0.54545436      -1.96428797      -1.24006404       0.00000000
Si       1.98835740       0.66160206      -1.38053073       0.00000000
Si      -1.81224621       1.86028542       0.05072409       0.00000000
Si       3.07899963       0.90284067       0.69083511       0.00000000
Si      -1.87768314      -0.58371957      -2.69656005       0.00000000
Si       0.83092032       2.17650690      -2.69272725       0.00000000
Si      -3.32288307       0.71516358      -1.36174659       0.00000000
Si      -0.56298240       3.43023417      -1.21102458       0.00000000
Si       0.59289084       1.66886163       3.54018894       0.00000000
