10
Lattice="16.28999089631971 0.0 0.0 0.0 16.28999089631971 0.0 0.0 0.0 34.529650657227435" Properties=species:S:1:pos:R:3:initial_magmoms:R:1 pbc="T T T"
Si      -1.73372841      -1.51859520      -0.58455278       0.00000000
Si      -0.09987399       0.90319742       2.22077572       0.00000000
Si      -0.96743052       1.83856922      -1.24034027       0.00000000
Si       2.36684645      -0.60069212      -0.46646131       0.00000000
Si      -2.61022815       0.79512956       2.49867051       0.00000000
Si       2.04236594      -0.07006492       3.09427278       0.00000000
Si       3.43837007       0.61255124       1.32787299       0.00000000
Si      -3.32563608      -1.30225192       1.24417307       0.00000000
Si      -0.89200782       3.70831913       0.31352940       0.00000000
Si      -1.96937955      -1.58189814      -3.00049020       0.00000000
