10
Lattice="16.28999089631971 0.0 0.0 0.0 16.28999089631971 0.0 0.0 0.0 34.529650657227435" Properties=species:S:1:pos:R:3:initial_magmoms:R:1 pbc="T T T"
Si       0.09987399      -0.90319742      -2.22077572       0.00000000
Si       0.68516622       2.31511851       0.05880403       0.00000000
Si       2.14223993      -0.97326234       0.87349706       0.00000000
Si      -2.51035416      -0.10806786       0.27789478       0.00000000
Si      -1.76511924      -0.19951992       2.62746618       0.00000000
Si      -0.79213383       2.80512171      -1.90724632       0.00000000
Si      -0.03564252      -2.04491954       2.89244103       0.00000000
Si       2.86349597       2.03970348      -0.97207927       0.00000000
Si       3.53824406      -0.29064618      -0.89290274       0.00000000
Si      -0.86755653       0.93537180      -3.46111600       0.00000000
