10
Lattice="16.28999089631971 0.0 0.0 0.0 16.28999089631971 0.0 0.0 0.0 34.529650657227435" Properties=species:S:1:pos:R:3:initial_magmoms:R:1 pbc="T T T"
Si      -0.33601383       0.31560246      -2.22658089       0.00000000
Si      -1.91749590      -0.76334940       1.15919969       0.00000000
Si       0.78433092       1.95089040       1.20556268       0.00000000
Si       1.81268604      -1.72845045      -0.23010990       0.00000000
Si      -0.49283766      -2.01227112       2.63380997       0.00000000
Si       2.24816318       0.72242892       2.63154827       0.00000000
Si      -0.53315541       2.59362864      -2.57809293       0.00000000
Si       0.82411110      -3.41163099       1.19135027       0.00000000
Si       3.55131841      -0.72440001       1.20821456       0.00000000
Si      -3.30116850      -1.96634961      -0.54508955       0.00000000
