10
Lattice="16.28999089631971 0.0 0.0 0.0 16.28999089631971 0.0 0.0 0.0 34.529650657227435" Properties=species:S:1:pos:R:3:initial_magmoms:R:1 pbc="T T T"
Si       1.35625653       1.33376004      -1.40024718       0.00000000
Si      -1.36904418      -1.36940256      -1.38729855       0.00000000
Si       1.36231641      -1.42503291       1.38829991       0.00000000
Si      -0.86449401       2.00257857       1.31861904       0.00000000
Si       2.70205488       2.67680538      -0.04982631       0.00000000
Si       2.68174125      -2.72812865      -0.05749190       0.00000000
Si      -2.71209441       2.70834282      -0.02147745       0.00000000
Si      -0.00765630       2.69643483      -2.75177299       0.00000000
Si       2.70560610      -0.01552437      -2.75498425       0.00000000
Si      -2.72238317      -0.01687644      -2.75215281       0.00000000
