10
Lattice="16.28999089631971 0.0 0.0 0.0 16.28999089631971 0.0 0.0 0.0 34.529650657227435" Properties=species:S:1:pos:R:3:initial_magmoms:R:1 pbc="T T T"
Si      -0.91305450       0.92872548       2.00741689       0.00000000
Si       1.83013493      -1.24124913       0.92346149       0.00000000
Si       1.16061792       1.58193819      -1.38930127       0.00000000
Si      -1.59637113      -1.13942034      -1.42276052       0.00000000
Si       3.47705882       0.42889941       0.50789692       0.00000000
Si       2.50333384       2.70181053       0.23421475       0.00000000
Si      -0.20246841      -2.39314761      -2.90446319       0.00000000
Si       2.53192442       0.31806225      -2.89952545       0.00000000
Si      -1.99094751      -1.01403621       3.15746208       0.00000000
Si      -2.84563494      -2.70936909      -0.16101185       0.00000000
