10
Lattice="16.28999089631971 0.0 0.0 0.0 16.28999089631971 0.0 0.0 0.0 34.529650657227435" Properties=species:S:1:pos:R:3:initial_magmoms:R:1 pbc="T T T"
Si      -1.36922337      -1.89820854      -0.51580421       0.00000000
Si      -0.08213418       1.18662876      -2.16252417       0.00000000
Si       2.03836837      -1.48061439       0.47402331       0.00000000
Si      -1.16618481       1.28510181       1.89785425       0.00000000
Si      -2.58308901      -2.24319816       1.45066049       0.00000000
Si      -0.89588484      -0.48433428      -3.61404791       0.00000000
Si      -2.94656778      -0.17536185       2.39259536       0.00000000
Si      -2.65246812      -1.47378888      -2.40754671       0.00000000
Si       0.51023538       1.67075127       3.46950671       0.00000000
Si       2.47898518       2.02518909       2.22043043       0.00000000
