10
Lattice="16.28999089631971 0.0 0.0 0.0 16.28999089631971 0.0 0.0 0.0 34.529650657227435" Properties=species:S:1:pos:R:3:initial_magmoms:R:1 pbc="T T T"
Si       1.91949957      -1.24543566       0.37181549       0.00000000
Si       0.95213421       1.38031686      -1.67075261       0.00000000
Si      -0.63201942       1.35215145       1.89961526       0.00000000
Si      -1.47812202      -1.91436822       0.15434762       0.00000000
Si       1.26198630      -1.33079526       2.68740968       0.00000000
Si      -0.94687254      -0.64638720       3.18425710       0.00000000
Si      -2.43276489       2.44837071       0.85163978       0.00000000
Si       2.56055994       2.56007124      -0.35710585       0.00000000
Si       1.72028916      -3.11437107      -0.99093247       0.00000000
Si       2.16210654      -0.04461831      -3.15038350       0.00000000
