10
Lattice="16.28999089631971 0.0 0.0 0.0 16.28999089631971 0.0 0.0 0.0 34.529650657227435" Properties=species:S:1:pos:R:3:initial_magmoms:R:1 pbc="T T T"
Si      -0.02945232       1.03974183      -2.12809809       0.00000000
Si      -1.20997233       1.42493517       1.47963089       0.00000000
Si       2.20357341       0.29436030       0.91572685       0.00000000
Si      -1.45810161      -1.94282685      -0.22996760       0.00000000
Si      -2.01837987       3.06856359      -0.04523387       0.00000000
Si       1.93620792      -0.43909695       3.15017632       0.00000000
Si      -0.24260697      -1.20081735       3.52219898       0.00000000
Si       2.34082806       2.58212790       1.44624070       0.00000000
Si      -0.44181738      -3.06975276       2.15945103       0.00000000
Si      -2.16210654       0.04461831       3.15038350       0.00000000
