10
Lattice="16.28999089631971 0.0 0.0 0.0 16.28999089631971 0.0 0.0 0.0 34.529650657227435" Properties=species:S:1:pos:R:3:initial_magmoms:R:1 pbc="T T T"
Si      -1.35156501       1.35591444       1.35791380       0.00000000
Si       1.35304740      -1.35459495       1.35915687       0.00000000
Si      -1.35610992      -1.35689184      -1.35673979       0.00000000
Si       1.35821133       1.35816460      -1.35680885       0.00000000
Si      -0.00216657       2.68469693       2.72256089       0.00000000
Si      -2.71363707       0.00100998      -2.71382488       0.00000000
Si       0.00092853      -2.71391400      -2.71413565       0.00000000
Si      -2.71337643      -2.71503801       0.00034530       0.00000000
Si      -2.71492398       2.71396028       0.00048342       0.00000000
Si       0.00092853       2.71536937      -2.71368676       0.00000000
