10
Lattice="16.28999089631971 0.0 0.0 0.0 16.28999089631971 0.0 0.0 0.0 34.529650657227435" Properties=species:S:1:pos:R:3:initial_magmoms:R:1 pbc="T T T"
Si      -1.59270588      -1.53482751       0.79266310       0.00000000
Si      -0.16521318       2.27713023       0.55675640       0.00000000
Si       2.30218425      -0.51306984       0.22092083       0.00000000
Si      -1.64040300       2.40015231      -1.25684546       0.00000000
Si      -3.28732689       0.73000377      -0.84128088       0.00000000
Si       0.05787837      -3.17528752      -1.82064591       0.00000000
Si      -3.40534957       0.05453892       1.44309850       0.00000000
Si      -3.07185091      -1.69556094      -1.28564320       0.00000000
Si      -0.73793700       1.58355090      -3.32417133       0.00000000
Si       2.43897138      -1.98718452       2.05631091       0.00000000
