10
Lattice="16.28999089631971 0.0 0.0 0.0 16.28999089631971 0.0 0.0 0.0 34.529650657227435" Properties=species:S:1:pos:R:3:initial_magmoms:R:1 pbc="T T T"
Si      -0.95213421      -1.38031686       1.67075261       0.00000000
Si      -0.80840754       1.64362842      -1.52486475       0.00000000
Si       1.20997233      -1.42493517      -1.47963089       0.00000000
Si       1.60842573       1.17975438       1.31364676       0.00000000
Si       0.96736536      -2.62575252       2.04256810       0.00000000
Si       3.41354574      -1.13057487      -0.56390404       0.00000000
Si       0.80312958       3.38364477      -1.09231158       0.00000000
Si       3.55080039       1.15719273      -0.03339019       0.00000000
Si      -0.24812928      -3.36776202      -1.70959849       0.00000000
Si       1.18052001      -0.38519334      -3.60772898       0.00000000
