10
Lattice="16.28999089631971 0.0 0.0 0.0 16.28999089631971 0.0 0.0 0.0 34.529650657227435" Properties=species:S:1:pos:R:3:initial_magmoms:R:1 pbc="T T T"
Si      -1.47518982       0.12302208      -1.81360186       0.00000000
Si       0.16521318      -2.27713023      -0.55675640       0.00000000
Si      -0.69076116       0.10619451       2.30958603       0.00000000
Si       2.23295175       0.89611290      -0.23162503       0.00000000
Si       2.03012496       2.63389752       1.31119516       0.00000000
Si       3.54755475      -0.92416428       0.64915780       0.00000000
Si       0.48469266       2.08275795       3.06571675       0.00000000
Si       2.46739743      -2.79020007      -0.33583557       0.00000000
Si      -3.12211371      -1.54712646      -1.39803728       0.00000000
Si      -3.04851549      -0.39348495       2.47491409       0.00000000
