10
Lattice="16.28999089631971 0.0 0.0 0.0 16.28999089631971 0.0 0.0 0.0 34.529650657227435" Properties=species:S:1:pos:R:3:initial_magmoms:R:1 pbc="T T T"
Si       0.55125360       1.40644602       1.78452787       0.00000000
Si       0.34964856      -2.03243814       1.10488038       0.00000000
Si       1.70220726      -0.00829161      -1.66546957       0.00000000
Si      -2.25060229       0.70543845      -0.53337981       0.00000000
Si      -1.66044459       1.26941454      -2.78198645       0.00000000
Si       0.69730974       1.76909400      -2.94731451       0.00000000
Si      -1.44885704       2.33386830       2.60567795       0.00000000
Si       1.18646586       0.13468572       3.61346090       0.00000000
Si       2.26103571      -2.29690629      -2.07088243       0.00000000
Si      -0.18792144      -1.68704127       3.43784300       0.00000000
