10
Lattice="16.28999089631971 0.0 0.0 0.0 16.28999089631971 0.0 0.0 0.0 34.529650657227435" Properties=species:S:1:pos:R:3:initial_magmoms:R:1 pbc="T T T"
Si      -0.95171067      -0.04608441       2.09270518       0.00000000
Si       1.04881536      -1.93225464      -0.80861581       0.00000000
Si      -1.87960862       0.43535025      -1.35715415       0.00000000
Si       0.99564480       2.19932919      -0.15683376       0.00000000
Si      -1.30788338       2.23239789       2.16853233       0.00000000
Si       1.05735132      -1.12945086      -3.04275452       0.00000000
Si      -0.80759304       0.27997623      -3.55206715       0.00000000
Si       3.05341389       1.84731858       1.19448487       0.00000000
Si      -0.26420751      -3.76541721      -0.05072409       0.00000000
Si       0.54977121      -0.68637915       3.72034995       0.00000000
