10
Lattice="16.28999089631971 0.0 0.0 0.0 16.28999089631971 0.0 0.0 0.0 34.529650657227435" Properties=species:S:1:pos:R:3:initial_magmoms:R:1 pbc="T T T"
Si       1.31302287       1.83316257      -0.75789173       0.00000000
Si      -2.17832975       0.27541503       1.03088330       0.00000000
Si       0.67474809      -2.33034966       0.07917653       0.00000000
Si      -0.72125604      -3.01296582       1.84557633       0.00000000
Si      -2.86349597      -2.03970348       0.97207927       0.00000000
Si       0.26420751       3.76541721       0.05072409       0.00000000
Si       3.02679603      -2.21535855       0.47840858       0.00000000
Si      -3.65562980       0.76541823      -0.93516705       0.00000000
Si       3.53910024       1.66855212      -0.02268599       0.00000000
Si      -0.39677553      -3.54359302      -1.71515777       0.00000000
