10
Lattice="16.28999089631971 0.0 0.0 0.0 16.28999089631971 0.0 0.0 0.0 34.529650657227435" Properties=species:S:1:pos:R:3:initial_magmoms:R:1 pbc="T T T"
Si      -1.35692832       1.35417141       1.36015823       0.00000000
Si       1.35793440      -1.35902583       1.35908781       0.00000000
Si      -1.35268335      -1.35249354      -1.37507850       0.00000000
Si       1.35990549       1.34431596      -1.38580687       0.00000000
Si      -2.70981611       2.71077003      -0.00124307       0.00000000
Si      -2.71211300      -2.71637379      -0.00376373       0.00000000
Si       2.71663443       2.71207323      -0.00407450       0.00000000
Si       0.00082753       2.71331127       2.71631102       0.00000000
Si      -2.71375829      -0.00164529       2.71624196       0.00000000
Si       2.71542897      -2.71544526      -0.00469604       0.00000000
