10
Lattice="16.28999089631971 0.0 0.0 0.0 16.28999089631971 0.0 0.0 0.0 34.529650657227435" Properties=species:S:1:pos:R:3:initial_magmoms:R:1 pbc="T T T"
Si       1.35560463       1.35565380       1.35608373       0.00000000
Si       1.35632302      -1.35770634      -1.35743039       0.00000000
Si      -1.35766495      -1.35677781       1.35822457       0.00000000
Si      -1.35826768       1.35718506      -1.35725774       0.00000000
Si       2.70482388       0.00531054       2.71102798       0.00000000
Si      -0.00143772       2.71300176      -2.71334146       0.00000000
Si       2.71300146       2.71399545      -0.00034530       0.00000000
Si       2.71342500      -0.00019548      -2.71441188       0.00000000
Si       2.71404402      -2.71513575       0.00020718       0.00000000
Si       0.00073526       2.71661814       2.71423924       0.00000000
