10
Lattice="16.28999089631971 0.0 0.0 0.0 16.28999089631971 0.0 0.0 0.0 34.529650657227435" Properties=species:S:1:pos:R:3:initial_magmoms:R:1 pbc="T T T"
Si      -1.19580003       0.11616399       2.02102158       0.00000000
Si       0.86034006      -2.18373966      -0.32036628       0.00000000
Si      -1.77567516       0.24275358      -1.62220389       0.00000000
Si       1.75870098       1.68821415      -0.25185941       0.00000000
Si      -2.84423889      -1.32432813       1.05457065       0.00000000
Si       2.40577236      -1.63260009      -2.07488787       0.00000000
Si      -0.06169023       1.10211624      -3.56159734       0.00000000
Si      -1.66749327       2.44444482       2.27360612       0.00000000
Si      -2.78272459       2.34110106      -1.35159487       0.00000000
Si       0.77683752       3.80558835      -0.03356284       0.00000000
