10
Lattice="16.28999089631971 0.0 0.0 0.0 16.28999089631971 0.0 0.0 0.0 34.529650657227435" Properties=species:S:1:pos:R:3:initial_magmoms:R:1 pbc="T T T"
Si       2.08127393      -0.99676881      -0.32319771       0.00000000
Si       0.13725465       2.28776760       0.53051385       0.00000000
Si      -0.26736549      -0.73345725       2.23444947       0.00000000
Si      -2.20357341      -0.29436030      -0.91572685       0.00000000
Si      -1.80512001       2.31032925       1.87755080       0.00000000
Si       1.57919984      -3.20557878       0.21943605       0.00000000
Si      -3.41354574       1.13057487       0.56390404       0.00000000
Si       3.54537026      -0.24716817       1.42314035       0.00000000
Si      -2.23302573       0.74538153      -3.04382494       0.00000000
Si      -2.44618038      -1.49517765       2.60647214       0.00000000
