10
Lattice="16.28999089631971 0.0 0.0 0.0 16.28999089631971 0.0 0.0 0.0 34.529650657227435" Properties=species:S:1:pos:R:3:initial_magmoms:R:1 pbc="T T T"
Si      -1.51461977      -1.72064754       0.64553218       0.00000000
Si      -1.27032678       1.67863563      -1.24251564       0.00000000
Si      -0.21967065       1.60181199       1.92257749       0.00000000
Si       0.78890841      -1.75371624      -1.67983391       0.00000000
Si       2.26698156      -1.21800330       1.88390426       0.00000000
Si       2.84667750      -2.10572685      -0.32851528       0.00000000
Si      -1.67951855       3.23806104       0.71573100       0.00000000
Si      -1.52031964       0.23672628       3.43182590       0.00000000
Si      -3.36244238       0.69675588      -1.62085724       0.00000000
Si      -3.06415619      -1.10570004       2.21461049       0.00000000
