10
Lattice="16.28999089631971 0.0 0.0 0.0 16.28999089631971 0.0 0.0 0.0 34.529650657227435" Properties=species:S:1:pos:R:3:initial_magmoms:R:1 pbc="T T T"
Si      -1.39843201       1.26995211       1.41523996       0.00000000
Si      -1.54383655      -1.34242632      -1.21721541       0.00000000
Si       1.31700415      -1.45914417       1.39464992       0.00000000
Si       1.30064899       1.36508571      -1.50924841       0.00000000
Si       0.00569987      -1.95737382      -2.78629372       0.00000000
Si       1.52031964      -0.23672628      -3.43182590       0.00000000
Si       2.73558622       2.67529041      -0.07737063       0.00000000
Si      -0.04357249       2.62824489       2.78159626       0.00000000
Si      -2.91861481       2.49349401       0.04621451       0.00000000
Si       2.67373309      -0.09138690       2.77638228       0.00000000
