10
Lattice="16.28999089631971 0.0 0.0 0.0 16.28999089631971 0.0 0.0 0.0 34.529650657227435" Properties=species:S:1:pos:R:3:initial_magmoms:R:1 pbc="T T T"
Si      -1.35495557       1.35324006       1.35819004       0.00000000
Si       1.35692768      -1.36226754       1.35777568       0.00000000
Si       1.36072325       1.34108759      -1.37610748       0.00000000
Si      -1.35485952      -1.35829278      -1.36635630       0.00000000
Si       0.04357249      -2.62824489      -2.78159626       0.00000000
Si      -2.71093686       2.70967601      -0.00597363       0.00000000
Si       0.00182122       2.71121705       2.71503342       0.00000000
Si       2.71585577       2.71202177      -0.00300408       0.00000000
Si      -2.71316859      -0.00376299       2.71527513       0.00000000
Si      -2.70914496      -2.72093499      -0.00238255       0.00000000
