10
Lattice="16.28999089631971 0.0 0.0 0.0 16.28999089631971 0.0 0.0 0.0 34.529650657227435" Properties=species:S:1:pos:R:3:initial_magmoms:R:1 pbc="T T T"
Si      -1.35333899       1.35252612      -1.36485426       0.00000000
Si       1.36361961      -1.36440968      -1.36450897       0.00000000
Si      -1.36835674      -1.37352556       1.36820364       0.00000000
Si       1.36904418       1.36940256       1.38729855       0.00000000
Si      -2.70695468       2.70599706      -0.00569740       0.00000000
Si       2.72530071       2.70316260      -0.01294863       0.00000000
Si      -2.70864323      -2.72157261      -0.00787276       0.00000000
Si       0.00446346       2.71034649      -2.72218106       0.00000000
Si      -2.71082673      -0.00483813      -2.72180123       0.00000000
Si       2.71821456      -2.71937834      -0.00942660       0.00000000
