10
Lattice="10.86 0.0 0.0 0.0 10.86 0.0 0.0 0.0 10.86" Properties=species:S:1:pos:R:3:initial_magmoms:R:1 pbc="T T T"
Si      -1.18207842       1.32966582      -1.15642710       0.00000000
Si       1.53292158      -1.38533418      -1.15642710       0.00000000
Si       1.53292158       1.32966582       1.55857290       0.00000000
Si      -2.74182420      -0.49903872      -2.36826192       0.00000000
Si       0.17542158       2.68716582      -2.51392710       0.00000000
Si      -2.53957842       2.68716582       0.20107290       0.00000000
Si       0.35239614      -2.69067360      -2.67481800       0.00000000
Si       2.89042158      -0.02783418      -2.51392710       0.00000000
Si       2.89042158       2.68716582       0.20107290       0.00000000
Si      -3.57969492      -1.64026182      -0.40738032       0.00000000
