10
Lattice="16.28999089631971 0.0 0.0 0.0 16.28999089631971 0.0 0.0 0.0 34.2284985734139" Properties=species:S:1:pos:R:3:initial_magmoms:R:1 pbc="T T T"
Si       1.35716877       1.35436689       1.35692113       0.00000000
Si       1.35713619      -1.35735611      -1.35726341       0.00000000
Si      -1.35782037       1.35762489      -1.35743456       0.00000000
Si      -1.35959598      -1.35799304       1.35678421       0.00000000
Si      -2.71511946       0.00223173       2.71213083       0.00000000
Si      -0.00004887       2.71456560      -2.71459528       0.00000000
Si       2.71479366       2.71459818      -0.00023960       0.00000000
Si      -2.71531494       2.71471221       0.00054766       0.00000000
Si      -2.71542897      -2.71504191       0.00017114       0.00000000
Si       2.71516833      -2.71535845      -0.00017114       0.00000000
