10
Lattice="16.28999089631971 0.0 0.0 0.0 16.28999089631971 0.0 0.0 0.0 34.2284985734139" Properties=species:S:1:pos:R:3:initial_magmoms:R:1 pbc="T T T"
Si      -0.75828321      -1.63396845       1.51447499       0.00000000
Si      -1.36989126      -0.05721048      -1.92285544       0.00000000
Si      -0.64814652       2.06566974       0.95394879       0.00000000
Si       2.28322269      -0.38418336      -0.48823558       0.00000000
Si       0.37809090       0.33549255      -3.41970275       0.00000000
Si       3.07672488       0.46900539       1.52292944       0.00000000
Si      -2.99400426       1.43742960       1.34874051       0.00000000
Si      -0.76233942      -3.50172188       0.09012369       0.00000000
Si      -2.68407072      -0.62693694       2.51319468       0.00000000
Si      -0.10660176       3.68616636      -0.69867250       0.00000000
