10
Lattice="16.28999089631971 0.0 0.0 0.0 16.28999089631971 0.0 0.0 0.0 34.2284985734139" Properties=species:S:1:pos:R:3:initial_magmoms:R:1 pbc="T T T"
Si       1.40755374       1.35725022       1.25192036       0.00000000
Si      -0.93265137       1.64915073      -1.34582017       0.00000000
Si      -1.55092203      -1.41750693       1.06545366       0.00000000
Si       1.02131784      -1.42195410      -1.61358987       0.00000000
Si      -0.96278787      -1.98228123      -2.86477910       0.00000000
Si      -2.16971397       0.18562455      -2.89531094       0.00000000
Si       2.69074962       2.39585175      -0.47443057       0.00000000
Si       2.57750154      -0.14911866       2.56325252       0.00000000
Si      -0.14636565       2.58655878       2.56064089       0.00000000
Si      -2.72614779       2.54185902      -0.13530163       0.00000000
