10
Lattice="16.28999089631971 0.0 0.0 0.0 16.28999089631971 0.0 0.0 0.0 34.2284985734139" Properties=species:S:1:pos:R:3:initial_magmoms:R:1 pbc="T T T"
Si       1.16994780      -1.50636888       1.31133216       0.00000000
Si      -1.40755374      -1.35725022      -1.25192036       0.00000000
Si      -1.55391939       1.22930856       1.30872053       0.00000000
Si       1.28319588       1.03860153      -1.72635093       0.00000000
Si      -2.34020511       0.29190051      -2.59774053       0.00000000
Si       2.56220523       2.57385258      -0.36001897       0.00000000
Si       2.50939305      -0.13266576       2.67161796       0.00000000
Si      -0.43707699       1.87923069      -3.14043368       0.00000000
Si      -0.20909844       2.58015681       2.66970116       0.00000000
Si       2.43934605      -2.98286190      -0.13858785       0.00000000
