10
Lattice="16.28999089631971 0.0 0.0 0.0 16.28999089631971 0.0 0.0 0.0 34.2284985734139" Properties=species:S:1:pos:R:3:initial_magmoms:R:1 pbc="T T T"
Si       1.48111938      -1.21510368      -1.38454354       0.00000000
Si       0.85835268       1.84394655       1.21956209       0.00000000
Si      -1.25923329       1.48072842      -1.37800589       0.00000000
Si      -0.61027227      -1.85598486       1.50228964       0.00000000
Si      -2.57106699      -2.73830013       0.30021833       0.00000000
Si       0.12113244      -2.58092244      -2.74670163       0.00000000
Si       1.49429799       0.94560192       3.33611671       0.00000000
Si      -2.59424766       0.13629843      -2.74940568       0.00000000
Si      -2.66714541       2.69822673       0.16196935       0.00000000
Si       2.76723117      -2.64331314      -0.02875195       0.00000000
