10
Lattice="16.28999089631971 0.0 0.0 0.0 16.28999089631971 0.0 0.0 0.0 34.2284985734139" Properties=species:S:1:pos:R:3:initial_magmoms:R:1 pbc="T T T"
Si       0.64814652      -2.06566974      -0.95394879       0.00000000
Si       0.54154476       1.62049662      -1.65262129       0.00000000
Si       1.05290415       0.71744418       2.07705491       0.00000000
Si      -2.34585774      -0.62824014       0.39479172       0.00000000
Si       3.15147969       0.69266709       0.53180848       0.00000000
Si      -0.72174474      -2.12288022      -2.87680423       0.00000000
Si      -2.03592420      -2.69260668       1.55924590       0.00000000
Si      -0.11013669      -3.69963819       0.56052621       0.00000000
Si       1.00988226      -1.15053012       3.48422350       0.00000000
Si      -0.29348064       2.44249002       3.03155136       0.00000000
