10
Lattice="16.28999089631971 0.0 0.0 0.0 16.28999089631971 0.0 0.0 0.0 34.2284985734139" Properties=species:S:1:pos:R:3:initial_magmoms:R:1 pbc="T T T"
Si       1.34638479      -1.72504584      -0.95449644       0.00000000
Si      -2.12475357      -0.86889231       0.72068144       0.00000000
Si      -0.20517255       1.77108138      -1.61832432       0.00000000
Si       1.09755504       0.61590861       2.07599383       0.00000000
Si       0.10990863       3.53176974      -0.07954708       0.00000000
Si       0.92427831      -1.33504695       3.35189605       0.00000000
Si      -3.17207025       1.05241545       1.72374815       0.00000000
Si      -3.22294392      -1.56458934      -1.23955154       0.00000000
Si      -1.98837369       3.08482101       1.06738210       0.00000000
Si       1.30336290      -3.59302014       0.45267215       0.00000000
