10
Lattice="16.28999089631971 0.0 0.0 0.0 16.28999089631971 0.0 0.0 0.0 34.2284985734139" Properties=species:S:1:pos:R:3:initial_magmoms:R:1 pbc="T T T"
Si      -0.90896571      -0.80607807      -1.98761579       0.00000000
Si       2.14819488       0.81743220      -0.49734036       0.00000000
Si       0.92408283      -1.53772713       1.53275302       0.00000000
Si      -1.81618839       1.09191870       1.07491237       0.00000000
Si      -0.90083700       1.28358684      -3.12855498       0.00000000
Si       2.00907828      -2.92693833       0.00051343       0.00000000
Si       3.16097676      -1.18812744      -1.14141838       0.00000000
Si       0.06341697       3.06745587       1.87004084       0.00000000
Si      -3.62796545      -0.49695903       0.52126610       0.00000000
Si      -1.61026650       0.08728182       3.35970016       0.00000000
