10
Lattice="16.28999089631971 0.0 0.0 0.0 16.28999089631971 0.0 0.0 0.0 34.2284985734139" Properties=species:S:1:pos:R:3:initial_magmoms:R:1 pbc="T T T"
Si       0.90896571       0.80607807       1.98761579       0.00000000
Si       1.24496325      -1.57380948      -1.21617346       0.00000000
Si      -2.09626236      -0.98795592       0.52434666       0.00000000
Si       0.00812871       2.08966491      -1.14093918       0.00000000
Si      -1.09006164       1.39396788      -3.10117216       0.00000000
Si       1.66946436      -3.23783624       0.36864114       0.00000000
Si      -2.71899974       0.30911904       2.50888189       0.00000000
Si      -0.90722268       1.89799677       3.06252816       0.00000000
Si       3.43624518      -0.63446292      -1.40894847       0.00000000
Si       3.05716059       1.62351027       1.49027543       0.00000000
