10
Lattice="16.28999089631971 0.0 0.0 0.0 16.28999089631971 0.0 0.0 0.0 34.2284985734139" Properties=species:S:1:pos:R:3:initial_magmoms:R:1 pbc="T T T"
Si      -1.36034532       1.35523026      -1.36102855       0.00000000
Si       1.35402480       1.36062225       1.36222655       0.00000000
Si       1.35620766      -1.35985662      -1.36099432       0.00000000
Si      -1.38127797      -1.36809936       1.36821654       0.00000000
Si      -0.15048702       2.52636723       2.77151731       0.00000000
Si       2.59502958      -0.00566892       2.81594592       0.00000000
Si       2.71182888      -2.71599912      -0.00164297       0.00000000
Si       2.71259451       2.71538010      -0.00417588       0.00000000
Si      -2.71440270       2.71433754      -0.00338862       0.00000000
Si      -2.71629234      -2.71252935      -0.00318325       0.00000000
