10
Lattice="16.28999089631971 0.0 0.0 0.0 16.28999089631971 0.0 0.0 0.0 34.2284985734139" Properties=species:S:1:pos:R:3:initial_magmoms:R:1 pbc="T T T"
Si       0.11782557       2.28234303       0.34509192       0.00000000
Si       1.05963192      -1.18227933      -1.77235265       0.00000000
Si      -1.19842272      -0.88321122       1.87093078       0.00000000
Si       1.35570267      -0.40979124       2.01955100       0.00000000
Si       0.88635519      -3.13323489      -0.49645042       0.00000000
Si      -1.78367355       2.64261267      -0.93988087       0.00000000
Si       3.08982204       0.08040744      -1.82390079       0.00000000
Si       1.88994951      -2.67185322       1.53792153       0.00000000
Si      -2.02629681       1.28663307      -2.78096438       0.00000000
Si      -0.71014626       2.72652246       2.55159908       0.00000000
