10
Lattice="16.28999089631971 0.0 0.0 0.0 16.28999089631971 0.0 0.0 0.0 34.2284985734139" Properties=species:S:1:pos:R:3:initial_magmoms:R:1 pbc="T T T"
Si       1.30666977      -1.28099673       1.48619882       0.00000000
Si       1.88012664       0.89863785      -1.17661146       0.00000000
Si      -1.13283918      -1.49040468      -1.55266174       0.00000000
Si      -1.40406768       1.44330464       1.44521359       0.00000000
Si      -2.59197683      -2.57518836       0.02702684       0.00000000
Si       3.42868662      -0.95086359      -1.07286003       0.00000000
Si       2.65799043      -2.71810053       0.19963098       0.00000000
Si       2.72978046       2.74595221       0.03830513       0.00000000
Si      -0.04290786      -2.62366740       2.84790851       0.00000000
Si       2.67245595       0.09052353       2.84099435       0.00000000
