10
Lattice="16.28999089631971 0.0 0.0 0.0 16.28999089631971 0.0 0.0 0.0 34.2284985734139" Properties=species:S:1:pos:R:3:initial_magmoms:R:1 pbc="T T T"
Si       1.35697329       1.35645930      -1.35767415       0.00000000
Si      -1.35767376       1.35743270       1.35712650       0.00000000
Si       1.35780408      -1.35777150       1.35668153       0.00000000
Si      -1.35694071      -1.35935163      -1.35774261       0.00000000
Si       0.00053757      -2.71484253      -2.71038517       0.00000000
Si      -0.00184077       2.71448156       2.71373957       0.00000000
Si       2.71456560      -2.71497285       0.00030806       0.00000000
Si      -2.71476760      -2.71497285      -0.00027383       0.00000000
Si      -0.00166158      -2.71552671       2.71435568       0.00000000
Si      -2.71509177      -0.00040725       2.71486911       0.00000000
