10
Lattice="16.28999089631971 0.0 0.0 0.0 16.28999089631971 0.0 0.0 0.0 34.2284985734139" Properties=species:S:1:pos:R:3:initial_magmoms:R:1 pbc="T T T"
Si      -1.35552348      -1.35695700      -1.35726341       0.00000000
Si      -1.35405738       1.35910728       1.35763993       0.00000000
Si       1.35946566       1.35775521      -1.35767415       0.00000000
Si       1.36034532      -1.35523026       1.36102855       0.00000000
Si      -0.00568521       2.68897401       2.71490334       0.00000000
Si      -2.71310602       0.00055386      -2.71462951       0.00000000
Si      -2.71343019       2.71511946       0.00051343       0.00000000
Si       0.00232947      -2.71433754      -2.71466374       0.00000000
Si       0.00166158       2.71552671      -2.71435568       0.00000000
Si      -2.71359472      -2.71642266      -0.00006846       0.00000000
