10
Lattice="16.28999089631971 0.0 0.0 0.0 16.28999089631971 0.0 0.0 0.0 34.2284985734139" Properties=species:S:1:pos:R:3:initial_magmoms:R:1 pbc="T T T"
Si       1.35620766      -1.35376416       1.35613387       0.00000000
Si      -1.35726651      -1.35615879      -1.35839295       0.00000000
Si      -1.35547461       1.35842310       1.36010438       0.00000000
Si       1.35785295       1.35872887      -1.35829027       0.00000000
Si      -0.00050499      -2.71336014      -2.71476642       0.00000000
Si       2.71370223      -2.71484253      -0.00061611       0.00000000
Si       2.71285515       2.71708633      -0.00109531       0.00000000
Si       2.71508688       0.00172674      -2.71493757       0.00000000
Si      -2.71507059       0.00161271      -2.71507448       0.00000000
Si      -2.71673217      -2.71391400      -0.00071880       0.00000000
