10
Lattice="16.28999089631971 0.0 0.0 0.0 16.28999089631971 0.0 0.0 0.0 34.2284985734139" Properties=species:S:1:pos:R:3:initial_magmoms:R:1 pbc="T T T"
Si       1.24100478      -1.36629117       1.45371938       0.00000000
Si      -1.35402480      -1.36062225      -1.36222655       0.00000000
Si       1.35856971       1.35475785      -1.36640243       0.00000000
Si      -1.50451182       1.16574498       1.40929076       0.00000000
Si      -0.61771680      -2.36550348       2.60355797       0.00000000
Si       2.20955931       0.45893817       2.83898172       0.00000000
Si      -2.31067134      -0.60209469       2.92003485       0.00000000
Si      -2.72005533       2.68358202      -0.00835176       0.00000000
Si       2.70111006      -2.70977634       0.00516851       0.00000000
Si       2.71379997       2.70254358       0.00462085       0.00000000
