10
Lattice="16.28999089631971 0.0 0.0 0.0 16.28999089631971 0.0 0.0 0.0 34.2284985734139" Properties=species:S:1:pos:R:3:initial_magmoms:R:1 pbc="T T T"
Si       1.27213497       1.70732625      -1.01549166       0.00000000
Si       1.09141371      -1.95393663      -0.75268510       0.00000000
Si       0.40549068      -0.14735934       2.34273667       0.00000000
Si      -2.19074436      -0.26078661      -1.21398284       0.00000000
Si      -2.82856302       1.78167707      -0.01139810       0.00000000
Si       1.17522576      -1.17288000      -2.92749666       0.00000000
Si       2.79523368       0.39774057      -2.21749452       0.00000000
Si      -1.11772206      -0.63833994      -3.35415514       0.00000000
Si      -0.62354862      -2.24337735       2.82375002       0.00000000
Si      -3.06534632      -2.23156710      -0.28269333       0.00000000
