10
Lattice="16.28999089631971 0.0 0.0 0.0 16.28999089631971 0.0 0.0 0.0 34.2284985734139" Properties=species:S:1:pos:R:3:initial_magmoms:R:1 pbc="T T T"
Si       0.08381205       0.78105663      -2.17481156       0.00000000
Si      -1.10161125      -1.99153395       0.41539729       0.00000000
Si      -1.09141371       1.95393663       0.75268510       0.00000000
Si       2.27651121      -0.73945197       0.45825139       0.00000000
Si       0.79988787      -2.35180359       1.70037007       0.00000000
Si       1.70381997       2.35167720      -1.46480942       0.00000000
Si       3.21424506       1.52772507       0.18681925       0.00000000
Si      -2.76957693      -1.45306800       1.84964064       0.00000000
Si      -0.68592303       1.80657729       3.09542177       0.00000000
Si      -2.20913577       1.31559669      -2.60147003       0.00000000
