10
Lattice="16.28999089631971 0.0 0.0 0.0 16.28999089631971 0.0 0.0 0.0 34.2284985734139" Properties=species:S:1:pos:R:3:initial_magmoms:R:1 pbc="T T T"
Si       1.75601313       1.08725487      -1.08551910       0.00000000
Si      -1.31178483       1.39691148       1.42807879       0.00000000
Si       1.40041872      -1.30870180       1.43683445       0.00000000
Si      -1.00532106      -1.76454487      -1.29482516       0.00000000
Si       0.43157097       2.02319682      -2.86967926       0.00000000
Si       3.43679904      -0.75341413      -1.26500821       0.00000000
Si       2.63448396      -2.69942797       0.00863586       0.00000000
Si      -2.72821662       2.62791420      -0.01101131       0.00000000
Si       0.69126615      -3.51975979      -1.31875089       0.00000000
Si      -2.65663836       0.04503045       2.79895489       0.00000000
