10
Lattice="16.28999089631971 0.0 0.0 0.0 16.28999089631971 0.0 0.0 0.0 34.2284985734139" Properties=species:S:1:pos:R:3:initial_magmoms:R:1 pbc="T T T"
Si      -2.17456580      -0.35160336      -0.77962295       0.00000000
Si       1.02611687      -2.10042283      -0.46461790       0.00000000
Si       0.63715729       1.55049849      -1.71495142       0.00000000
Si       0.73583885       0.81031347       2.16255775       0.00000000
Si      -1.43607494      -1.34058555      -2.83788640       0.00000000
Si       0.92492339      -1.92210597      -2.85109861       0.00000000
Si       2.65485623       2.13473934       1.12348264       0.00000000
Si      -1.40184965       2.73338055      -2.07859519       0.00000000
Si      -3.20730293       1.78237035      -0.84164502       0.00000000
Si      -3.34218413      -1.81029141       0.62278788       0.00000000
