10
Lattice="16.28999089631971 0.0 0.0 0.0 16.28999089631971 0.0 0.0 0.0 34.2284985734139" Properties=species:S:1:pos:R:3:initial_magmoms:R:1 pbc="T T T"
Si      -0.79350219      -0.85318875      -2.01116501       0.00000000
Si      -0.93530664      -0.76685175       2.01157576       0.00000000
Si       2.19994821      -0.81884943       0.06547915       0.00000000
Si      -0.57339171       2.28933144      -0.03717217       0.00000000
Si      -3.07672488      -0.46900539      -1.52292944       0.00000000
Si       1.36142046       1.49881032       2.90363939       0.00000000
Si       3.11642361       0.71029287       1.58803208       0.00000000
Si      -0.28448856       2.95041222       2.12737083       0.00000000
Si      -2.07811530      -2.67570743       1.50328227       0.00000000
Si       0.00045612       0.73088343      -3.63917600       0.00000000
