10
Lattice="16.28999089631971 0.0 0.0 0.0 16.28999089631971 0.0 0.0 0.0 34.2284985734139" Properties=species:S:1:pos:R:3:initial_magmoms:R:1 pbc="T T T"
Si       1.96988454      -1.21852458      -0.14749068       0.00000000
Si       0.64378080       2.10707892      -0.74970722       0.00000000
Si      -0.57586779       0.75696372       2.12504329       0.00000000
Si      -1.65294630      -0.15858315      -1.64177085       0.00000000
Si       2.39878395       1.31856147      -2.06531453       0.00000000
Si      -2.79893151       1.30681638       1.51704213       0.00000000
Si       1.72305846      -2.75636574       1.62554653       0.00000000
Si      -3.43262880       1.05440283      -0.73810376       0.00000000
Si      -0.71763966       0.60826860      -3.65334661       0.00000000
Si       2.09707686      -2.11296613      -2.34653603       0.00000000
