10
Lattice="16.28999089631971 0.0 0.0 0.0 16.28999089631971 0.0 0.0 0.0 34.2284985734139" Properties=species:S:1:pos:R:3:initial_magmoms:R:1 pbc="T T T"
Si      -1.40564781       1.73766244      -0.75319853       0.00000000
Si       1.79773182       1.45915231       0.56966522       0.00000000
Si      -1.24136316      -1.12857024       1.71792930       0.00000000
Si       0.37929636      -1.51285134      -1.92306081       0.00000000
Si       0.36320184       0.48925060       2.93595111       0.00000000
Si      -2.65422744       0.62068647      -2.37268662       0.00000000
Si       3.69701550       0.04748046       0.47919925       0.00000000
Si       0.03816747      -3.04951962       2.14677840       0.00000000
Si       1.96931439       2.92662067      -1.28712918       0.00000000
Si      -1.13112873      -0.68889921      -3.57468947       0.00000000
