10
Lattice="16.28999089631971 0.0 0.0 0.0 16.28999089631971 0.0 0.0 0.0 34.2284985734139" Properties=species:S:1:pos:R:3:initial_magmoms:R:1 pbc="T T T"
Si       1.35705474       1.35747828       1.35702381       0.00000000
Si       1.35770634      -1.35690813      -1.35709227       0.00000000
Si      -1.35755973       1.35806472      -1.35716073       0.00000000
Si      -1.35762489      -1.36023129       1.35716073       0.00000000
Si       0.00324171      -2.71450044       2.71360265       0.00000000
Si      -0.00052128       2.71454931      -2.71391071       0.00000000
Si       2.71463076       0.00159642      -2.71394494       0.00000000
Si       0.00162900      -2.71433754      -2.71449260       0.00000000
Si      -2.71484253      -0.00003258      -2.71435568       0.00000000
Si      -2.71479366      -2.71459818       0.00023960       0.00000000
