10
Lattice="16.28999089631971 0.0 0.0 0.0 16.28999089631971 0.0 0.0 0.0 34.2284985734139" Properties=species:S:1:pos:R:3:initial_magmoms:R:1 pbc="T T T"
Si      -1.36756179       1.30430772       1.30698172       0.00000000
Si       1.14336252      -1.30800555       1.50732123       0.00000000
Si      -1.34902377      -1.36202319      -1.32111810       0.00000000
Si       1.36197432       1.35575154      -1.32337718       0.00000000
Si       1.74801474       0.55739493       2.91199114       0.00000000
Si      -2.41285851      -0.34438689       2.64514562       0.00000000
Si       0.13745502       2.38039254       2.74468215       0.00000000
Si      -0.69740748      -2.25429165       2.83723606       0.00000000
Si       0.00244350       2.70775638      -2.68111979       0.00000000
Si      -2.71015101      -0.00483813      -2.68125671       0.00000000
