10
Lattice="16.28999089631971 0.0 0.0 0.0 16.28999089631971 0.0 0.0 0.0 34.2284985734139" Properties=species:S:1:pos:R:3:initial_magmoms:R:1 pbc="T T T"
Si       1.55092203       1.41750693      -1.06545366       0.00000000
Si      -1.33309215       1.28699145       1.48613378       0.00000000
Si      -1.31373963      -1.33258716      -1.59690894       0.00000000
Si       1.38494322      -1.42838865       1.46507640       0.00000000
Si       2.57223987      -0.00444717      -2.67904353       0.00000000
Si      -2.72459861       2.61223182       0.07503918       0.00000000
Si      -2.53780933       0.27870561      -2.92168949       0.00000000
Si      -2.71478389      -2.78161687      -0.08729299       0.00000000
Si       0.03696201       2.64117915       2.85541483       0.00000000
Si      -2.67693733      -0.07477110       2.85760545       0.00000000
