10
Lattice="16.28999089631971 0.0 0.0 0.0 16.28999089631971 0.0 0.0 0.0 34.2284985734139" Properties=species:S:1:pos:R:3:initial_magmoms:R:1 pbc="T T T"
Si      -0.18256203       1.34832330      -1.90529621       0.00000000
Si       1.24165638       0.97233381       1.73374288       0.00000000
Si       1.07206119      -2.10085614      -0.25466017       0.00000000
Si      -2.11172157       0.38542140       1.16291389       0.00000000
Si       0.49821336      -0.54240813       3.34734366       0.00000000
Si       0.60066117      -0.15785010      -3.59940246       0.00000000
Si      -2.39529789       2.35315566      -1.48182099       0.00000000
Si      -1.62702891      -2.96525241      -1.55811635       0.00000000
Si       3.38623488      -1.62932580       0.29833576       0.00000000
Si       0.30701763       3.14133102       2.09629134       0.00000000
