10
Lattice="16.28999089631971 0.0 0.0 0.0 16.28999089631971 0.0 0.0 0.0 34.2284985734139" Properties=species:S:1:pos:R:3:initial_magmoms:R:1 pbc="T T T"
Si      -1.00359432      -0.46138167      -2.03437195       0.00000000
Si       2.26486386       0.32257458      -0.43360686       0.00000000
Si      -0.53424684       2.26206198       0.48162947       0.00000000
Si      -0.22392234      -1.91943441       1.38382474       0.00000000
Si       1.41086061      -0.69281370       3.06615639       0.00000000
Si       3.05693253       0.34769376       1.77936949       0.00000000
Si      -3.08837223       1.78864200       0.33300925       0.00000000
Si      -2.22770637      -2.81654100      -0.00427856       0.00000000
Si      -1.88994951       2.67185322      -1.53792153       0.00000000
Si       0.00918756      -2.46694131      -2.67844997       0.00000000
