10
Lattice="16.28999089631971 0.0 0.0 0.0 16.28999089631971 0.0 0.0 0.0 34.2284985734139" Properties=species:S:1:pos:R:3:initial_magmoms:R:1 pbc="T T T"
Si      -1.35096228       1.35606105      -1.35603119       0.00000000
Si      -1.35567009      -1.35850455       1.35736610       0.00000000
Si       1.35907470       1.35677781       1.35722918       0.00000000
Si       1.35900954      -1.35878148      -1.36024129       0.00000000
Si      -2.67460623      -0.02573820      -2.72391228       0.00000000
Si      -0.00229689       2.68459200      -2.72687305       0.00000000
Si      -2.71384884       2.71329498       0.00044497       0.00000000
Si      -2.71376739      -0.00032580       2.71483488       0.00000000
Si       0.00135207       2.71451673       2.71514294       0.00000000
Si       0.00195480      -2.71562445       2.71442414       0.00000000
