10
Lattice="16.28999089631971 0.0 0.0 0.0 16.28999089631971 0.0 0.0 0.0 34.2284985734139" Properties=species:S:1:pos:R:3:initial_magmoms:R:1 pbc="T T T"
Si       1.85609889       0.71495181      -1.06806667       0.00000000
Si       0.93463875      -2.16899721      -0.36254846       0.00000000
Si      -2.34101961      -0.53739081       0.01762769       0.00000000
Si       0.99895167       0.82974744       2.03984851       0.00000000
Si      -3.24790020       0.84981672      -1.69133375       0.00000000
Si      -2.41873920      -2.75590962      -0.93337745       0.00000000
Si      -0.86615559       3.64825953      -0.51147674       0.00000000
Si      -0.30701763      -3.14133102      -2.09629134       0.00000000
Si       0.19119573      -3.68373915       1.25105232       0.00000000
Si       3.18725253       1.66540815       1.61993306       0.00000000
