10
Lattice="16.28999089631971 0.0 0.0 0.0 16.28999089631971 0.0 0.0 0.0 34.2284985734139" Properties=species:S:1:pos:R:3:initial_magmoms:R:1 pbc="T T T"
Si      -0.72829332       1.84497282       1.27795594       0.00000000
Si       0.01164735      -1.59583356       1.76105724       0.00000000
Si       2.18830086       0.83566071      -0.41991546       0.00000000
Si      -0.99895167      -0.82974744      -2.03984851       0.00000000
Si       0.85714722      -0.11479563      -3.10791518       0.00000000
Si      -1.96164180       3.09361761      -0.20081871       0.00000000
Si       2.09699541       1.91581803      -2.58216515       0.00000000
Si      -0.06431292      -2.99874465      -2.40239697       0.00000000
Si       2.20708323      -1.80483426       2.57891344       0.00000000
Si       2.88790749       1.89064998       1.70581241       0.00000000
