10
Lattice="16.28999089631971 0.0 0.0 0.0 16.28999089631971 0.0 0.0 0.0 34.2284985734139" Properties=species:S:1:pos:R:3:initial_magmoms:R:1 pbc="T T T"
Si       0.23369634      -1.41535665       1.87014352       0.00000000
Si       1.62425961       1.63518110       0.54659520       0.00000000
Si      -2.26468467       0.70903854       0.41016033       0.00000000
Si       0.45170541      -1.19273751      -2.04313445       0.00000000
Si      -3.20241852      -1.55813850       0.68159247       0.00000000
Si       0.69105438       0.08571798       3.67532132       0.00000000
Si       1.05303447       2.26937034       2.81242039       0.00000000
Si      -1.91554110      -2.10005793       2.61468224       0.00000000
Si       1.87108569       3.17302226      -1.22644202       0.00000000
Si       0.72622449       0.32791770      -3.86176405       0.00000000
