10
Lattice="16.28999089631971 0.0 0.0 0.0 16.28999089631971 0.0 0.0 0.0 34.2284985734139" Properties=species:S:1:pos:R:3:initial_magmoms:R:1 pbc="T T T"
Si      -1.35670541      -1.35739683      -1.35678421       0.00000000
Si       1.35707917      -1.35770634       1.35822181       0.00000000
Si      -1.35809766       1.35782037       1.35781107       0.00000000
Si       1.35844753       1.35873261      -1.35736610       0.00000000
Si       2.71253750      -0.00099369       2.71521140       0.00000000
Si      -0.00061739       2.71314837       2.71500602       0.00000000
Si       2.71457375      -2.71479366       0.00023960       0.00000000
Si      -2.71516737      -2.71485882       0.00003423       0.00000000
Si      -2.71547688       2.71471221       0.00054766       0.00000000
Si       2.71530679       2.71523349       0.00041074       0.00000000
