10
Lattice="16.28999089631971 0.0 0.0 0.0 16.28999089631971 0.0 0.0 0.0 34.2284985734139" Properties=species:S:1:pos:R:3:initial_magmoms:R:1 pbc="T T T"
Si      -0.04706181       0.06381119       2.37573296       0.00000000
Si       1.78712770      -1.75369736      -0.11589776       0.00000000
Si       0.57054096       2.07105521      -1.31102069       0.00000000
Si      -2.04320583      -0.72206795      -1.31389588       0.00000000
Si       1.89584064       1.53372956       1.96796863       0.00000000
Si      -0.74766213      -1.94733659      -2.87327869       0.00000000
Si       1.96570845       0.78611793      -2.86735716       0.00000000
Si       0.62074953      -3.30691628      -1.44855087       0.00000000
Si       3.28161140      -0.67303505      -1.53990678       0.00000000
Si      -2.22394338       0.86042477       2.91496902       0.00000000
