10
Lattice="16.28999089631971 0.0 0.0 0.0 16.28999089631971 0.0 0.0 0.0 34.2284985734139" Properties=species:S:1:pos:R:3:initial_magmoms:R:1 pbc="T T T"
Si       0.04706181      -0.06381119      -2.37573296       0.00000000
Si      -2.17688157       0.79661358       0.53923607       0.00000000
Si       1.94290245       1.46991838      -0.40776433       0.00000000
Si       0.56490462      -2.01645832       1.31701068       0.00000000
Si       2.05123095       1.75958716       2.03622029       0.00000000
Si       1.83418951      -1.81750855      -2.49163072       0.00000000
Si       2.86735670      -1.96744171       1.71970919       0.00000000
Si      -3.56105916      -0.96001924       1.26597596       0.00000000
Si      -0.00122175       2.25579685       3.19067973       0.00000000
Si      -0.40775499      -1.76075419       3.46669850       0.00000000
