10
Lattice="16.28999089631971 0.0 0.0 0.0 16.28999089631971 0.0 0.0 0.0 34.2284985734139" Properties=species:S:1:pos:R:3:initial_magmoms:R:1 pbc="T T T"
Si       2.13983811      -0.13981707       0.93717681       0.00000000
Si      -0.03582171      -1.59900034      -1.71426685       0.00000000
Si      -0.91336401       1.93144014      -1.00854327       0.00000000
Si      -1.02804561      -0.08982306       2.14311595       0.00000000
Si       1.75770729      -2.01266534       2.34441386       0.00000000
Si       2.35496385       2.11387185       1.66518316       0.00000000
Si      -1.41999930      -3.35563316      -0.98752696       0.00000000
Si      -3.22753770       1.45990980      -1.56153921       0.00000000
Si       0.37799316       2.39761107      -3.05824960       0.00000000
Si      -3.22799382       0.72902637       2.07763680       0.00000000
