10
Lattice="16.28999089631971 0.0 0.0 0.0 16.28999089631971 0.0 0.0 0.0 34.2284985734139" Properties=species:S:1:pos:R:3:initial_magmoms:R:1 pbc="T T T"
Si      -1.36197432      -1.35575154       1.32337718       0.00000000
Si      -1.35953082       1.35200484      -1.35774261       0.00000000
Si       1.35462753       1.35259128       1.36407489       0.00000000
Si       1.35795069      -1.35979146      -1.35664730       0.00000000
Si       2.35851507      -0.28536822       2.72181750       0.00000000
Si      -2.72953611      -0.05144382       2.63035890       0.00000000
Si      -0.06439437       2.63658537       2.77223611       0.00000000
Si      -2.71134018       2.71375110      -0.00171143       0.00000000
Si       0.00068418       2.71168227      -2.71449260       0.00000000
Si       2.71686249       2.71117728       0.00349131       0.00000000
