10
Lattice="16.28999089631971 0.0 0.0 0.0 16.28999089631971 0.0 0.0 0.0 34.2284985734139" Properties=species:S:1:pos:R:3:initial_magmoms:R:1 pbc="T T T"
Si       1.37295378      -1.29173184       1.46466223       0.00000000
Si       0.63873090       1.91387952      -1.28511795       0.00000000
Si      -1.35883035       1.38036573       1.46222516       0.00000000
Si      -0.77421483      -1.87131375      -1.55377759       0.00000000
Si       0.00358380       1.19834127      -3.51589314       0.00000000
Si       2.58194871       2.73421134       0.04226880       0.00000000
Si      -2.65789269      -2.67172290      -0.19880950       0.00000000
Si       2.76512976      -2.57051313       0.05490939       0.00000000
Si      -2.77562052       2.65538403       0.08092306       0.00000000
Si       0.00247608      -2.66300775       2.82885692       0.00000000
