10
Lattice="16.28999089631971 0.0 0.0 0.0 16.28999089631971 0.0 0.0 0.0 34.2284985734139" Properties=species:S:1:pos:R:3:initial_magmoms:R:1 pbc="T T T"
Si       1.36075487       1.35316143       1.37296061       0.00000000
Si      -1.35565380      -1.35936792       1.37412438       0.00000000
Si       1.31495391      -1.39113342      -1.40604590       0.00000000
Si      -1.30673493       1.44645426      -1.40091846       0.00000000
Si      -2.70440064      -2.71722087       0.00424776       0.00000000
Si       2.70646037      -2.71637379       0.00504871       0.00000000
Si      -2.69891091       2.72523555       0.00883438       0.00000000
Si      -2.71138905      -0.00337203       2.73354419       0.00000000
Si       0.00234761       2.71298547       2.73347573       0.00000000
Si       2.72815865       2.72143998       0.01752158       0.00000000
