10
Lattice="16.28999089631971 0.0 0.0 0.0 16.28999089631971 0.0 0.0 0.0 34.2284985734139" Properties=species:S:1:pos:R:3:initial_magmoms:R:1 pbc="T T T"
Si      -1.39217598       1.27878129       1.40975284       0.00000000
Si      -1.70683362      -1.07875638      -1.23405307       0.00000000
Si       1.30673493      -1.44645426       1.40091846       0.00000000
Si       1.55364476       1.27531152      -1.44925054       0.00000000
Si      -0.31398975      -2.62369998      -2.45361793       0.00000000
Si      -2.76512976       2.57051313      -0.05490939       0.00000000
Si      -0.04983111       2.62190808       2.77559050       0.00000000
Si       2.66748980      -0.09329283       2.77387907       0.00000000
Si       2.62168884      -2.83758768      -0.00512743       0.00000000
Si       2.83365920       2.67186951      -0.03926696       0.00000000
