10
Lattice="16.28999089631971 0.0 0.0 0.0 16.28999089631971 0.0 0.0 0.0 34.2284985734139" Properties=species:S:1:pos:R:3:initial_magmoms:R:1 pbc="T T T"
Si       1.35737923      -1.35689184       1.35726341       0.00000000
Si      -1.35672894      -1.35767376      -1.35736610       0.00000000
Si      -1.35746199       1.35721764       1.35729764       0.00000000
Si       1.35700772       1.35868374      -1.35743456       0.00000000
Si      -0.00205254       2.71379997       2.71507448       0.00000000
Si      -2.71451673      -2.71466334       0.00010269       0.00000000
Si       2.71485949      -0.00156384       2.71445837       0.00000000
Si      -0.00019548      -2.71425609       2.71514294       0.00000000
Si      -2.71466334       2.71521720      -0.00041074       0.00000000
Si       2.71547688      -2.71471221      -0.00054766       0.00000000
