10
Lattice="16.28999089631971 0.0 0.0 0.0 16.28999089631971 0.0 0.0 0.0 34.2284985734139" Properties=species:S:1:pos:R:3:initial_magmoms:R:1 pbc="T T T"
Si       1.35614317      -1.35827649      -1.36082318       0.00000000
Si      -1.36076886       1.35708732      -1.36020706       0.00000000
Si      -1.36223496      -1.35858600       1.36058358       0.00000000
Si       1.36652479       1.34342001       1.38478314       0.00000000
Si       2.71379087      -2.70961344      -0.00290942       0.00000000
Si      -2.71686249      -2.71117728      -0.00349131       0.00000000
Si      -0.00133709      -2.71360449      -2.71801813       0.00000000
Si       2.71421441       0.00118917      -2.71801813       0.00000000
Si      -2.71490769       2.71769328       0.00078726       0.00000000
Si       2.71568051       2.71725345      -0.00311480       0.00000000
