10
Lattice="16.28999089631971 0.0 0.0 0.0 16.28999089631971 0.0 0.0 0.0 34.2284985734139" Properties=species:S:1:pos:R:3:initial_magmoms:R:1 pbc="T T T"
Si       1.60581933      -1.61715717      -0.46506287       0.00000000
Si      -2.18830086      -0.83566071       0.41991546       0.00000000
Si      -0.09130545       1.08015732      -2.16224969       0.00000000
Si       0.69960663       1.05498927       2.12572786       0.00000000
Si      -1.33115364      -0.95045634      -2.68799972       0.00000000
Si       3.45592350      -0.16206921      -0.52311444       0.00000000
Si      -2.91659418       1.00931211       1.69787139       0.00000000
Si      -1.15452117       2.45895921       2.35745493       0.00000000
Si       0.21152565       3.34855611      -1.49345868       0.00000000
Si       1.57480317      -3.25813032       1.24855364       0.00000000
