10
Lattice="16.28999089631971 0.0 0.0 0.0 16.28999089631971 0.0 0.0 0.0 34.2284985734139" Properties=species:S:1:pos:R:3:initial_magmoms:R:1 pbc="T T T"
Si       2.32710795       0.41756157       0.29730890       0.00000000
Si      -0.30283110      -2.26839879      -0.66879101       0.00000000
Si      -1.09152774       0.63105831       2.03228401       0.00000000
Si      -0.82619622       1.21829652      -1.90341364       0.00000000
Si      -1.00172097      -0.65342448      -3.34532418       0.00000000
Si       0.18052578       2.58172132       2.46856070       0.00000000
Si      -0.21152565      -3.34855611       1.49345868       0.00000000
Si       2.35151037       2.56126434       1.42852719       0.00000000
Si       3.29976756       0.16185744      -1.85237892       0.00000000
Si      -3.37367529       1.04431932       1.64125742       0.00000000
