10
Lattice="16.28999089631971 0.0 0.0 0.0 16.28999089631971 0.0 0.0 0.0 34.2284985734139" Properties=species:S:1:pos:R:3:initial_magmoms:R:1 pbc="T T T"
Si       1.18943064       1.82109168      -0.77010742       0.00000000
Si      -0.41607918       0.85649562       2.15054354       0.00000000
Si      -1.79181855      -0.94001445      -1.25057312       0.00000000
Si       1.36186029      -1.66208499       1.06084445       0.00000000
Si       1.50640197      -0.33379839       2.96819437       0.00000000
Si      -2.26403307      -2.73644307       0.19592404       0.00000000
Si      -0.04834872      -3.50085132       0.76476777       0.00000000
Si       2.83830348       0.95982309      -2.13363465       0.00000000
Si       2.11241619       2.77917174       1.21018347       0.00000000
Si      -2.68402185       0.35546409       2.58237052       0.00000000
