10
Lattice="16.28999089631971 0.0 0.0 0.0 16.28999089631971 0.0 0.0 0.0 34.2284985734139" Properties=species:S:1:pos:R:3:initial_magmoms:R:1 pbc="T T T"
Si      -0.63873090      -1.91387952       1.28511795       0.00000000
Si      -0.63514710      -0.71553825      -2.23077518       0.00000000
Si      -1.69658721       1.75521492       0.02392573       0.00000000
Si       1.94321781       0.82033182       1.32738675       0.00000000
Si       1.63279557      -0.21450672      -2.66260216       0.00000000
Si      -1.99756125      -0.53351379       2.74734311       0.00000000
Si       0.70915257       2.21105799       2.75558534       0.00000000
Si      -3.41435142       0.74150451       1.36604101       0.00000000
Si      -0.69126615       3.51975979       1.31875089       0.00000000
Si       2.28338559       2.15816436      -2.23512221       0.00000000
