10
Lattice="16.28999089631971 0.0 0.0 0.0 16.28999089631971 0.0 0.0 0.0 34.2284985734139" Properties=species:S:1:pos:R:3:initial_magmoms:R:1 pbc="T T T"
Si       0.41607918      -0.85649562      -2.15054354       0.00000000
Si      -2.26794267      -0.50103153       0.43182698       0.00000000
Si       1.92248115      -1.19029401       0.81765083       0.00000000
Si       0.65059002       2.37267108       0.42747996       0.00000000
Si      -1.63279557       0.21450672       2.66260216       0.00000000
Si      -2.70886410       1.28536245      -1.30218973       0.00000000
Si       1.77793947      -2.51858061      -1.08969909       0.00000000
Si       2.52849537       1.92267612      -0.94036007       0.00000000
Si       1.60550982       0.96459606      -2.92065096       0.00000000
Si       3.80440637       0.30340125       0.38068957       0.00000000
