10
Lattice="16.28999089631971 0.0 0.0 0.0 16.28999089631971 0.0 0.0 0.0 34.2284985734139" Properties=species:S:1:pos:R:3:initial_magmoms:R:1 pbc="T T T"
Si      -2.16426497       0.10580355      -0.99875392       0.00000000
Si       1.04731668      -1.92130776      -1.00306671       0.00000000
Si      -0.83183256      -0.09083304       2.27883202       0.00000000
Si       1.18369656       2.03240556      -0.65636606       0.00000000
Si      -0.64490481       2.94919047      -1.81267384       0.00000000
Si      -1.67789118       1.16892153      -3.03264667       0.00000000
Si       3.17207025      -1.05241545      -1.72374815       0.00000000
Si      -3.49545023       1.41362991       0.44267742       0.00000000
Si       0.13196529      -2.11297590       3.20040063       0.00000000
Si       1.42631982       3.38838516       1.18471745       0.00000000
