10
Lattice="16.28999089631971 0.0 0.0 0.0 16.28999089631971 0.0 0.0 0.0 34.2284985734139" Properties=species:S:1:pos:R:3:initial_magmoms:R:1 pbc="T T T"
Si      -1.35555155       1.35509921       1.36085741       0.00000000
Si       1.36031763      -1.36197432       1.36051512       0.00000000
Si      -1.34791537      -1.36319607      -1.38443059       0.00000000
Si       1.35663609       1.34950682      -1.39482236       0.00000000
Si      -2.71403033       2.71170249       0.00030806       0.00000000
Si       0.00216005       2.71271898       2.71808659       0.00000000
Si      -2.71300406      -0.00208512       2.71812082       0.00000000
Si       2.71937604       2.71263591      -0.00225908       0.00000000
Si      -2.71476338      -2.71894761       0.00184834       0.00000000
Si       2.71779591      -2.71746522       0.00787256       0.00000000
