10
Lattice="16.28999089631971 0.0 0.0 0.0 16.28999089631971 0.0 0.0 0.0 34.2284985734139" Properties=species:S:1:pos:R:3:initial_magmoms:R:1 pbc="T T T"
Si      -1.35731782      -1.35682668      -1.35767415       0.00000000
Si       1.35937281      -1.35601218       1.35712650       0.00000000
Si       1.35741801       1.35783995      -1.35774261       0.00000000
Si      -1.36031733       1.35861952       1.35811913       0.00000000
Si       2.70774498      -0.02614545       2.71438991       0.00000000
Si       2.71325100       2.71488881      -0.00112954       0.00000000
Si       2.71343019      -2.71511946      -0.00051343       0.00000000
Si      -2.71438871       2.71481551      -0.00068457       0.00000000
Si       0.00032417      -2.71456560      -2.71514294       0.00000000
Si       2.71509177       0.00040725      -2.71486911       0.00000000
