10
Lattice="16.28999089631971 0.0 0.0 0.0 16.28999089631971 0.0 0.0 0.0 34.2284985734139" Properties=species:S:1:pos:R:3:initial_magmoms:R:1 pbc="T T T"
Si       1.87636365       0.74981960       1.14846945       0.00000000
Si       1.38707721      -1.29617901      -1.34802171       0.00000000
Si      -1.49448370      -1.08066231       1.42400902       0.00000000
Si      -1.31590294       1.45915299      -1.32745037       0.00000000
Si       0.55830717       0.95781520       3.06550605       0.00000000
Si       0.38998260      -1.36995642       3.34772017       0.00000000
Si      -3.28161140       0.67303505       1.53990678       0.00000000
Si      -2.66086187      -2.63388123       0.09135591       0.00000000
Si       0.03870504      -2.62604574      -2.70528513       0.00000000
Si      -2.68098510       0.08858596      -2.70429250       0.00000000
