10
Lattice="16.28999089631971 0.0 0.0 0.0 16.28999089631971 0.0 0.0 0.0 34.2284985734139" Properties=species:S:1:pos:R:3:initial_magmoms:R:1 pbc="T T T"
Si       1.16637817       1.55321892       1.33265311       0.00000000
Si       1.35041119      -1.36599795      -1.40874310       0.00000000
Si      -1.36841166       1.35957969      -1.42472782       0.00000000
Si      -1.92215763      -0.95565285       1.18321140       0.00000000
Si      -0.61711686      -2.92568400       2.03728137       0.00000000
Si      -0.62074953       3.30691628       1.44855087       0.00000000
Si      -2.66395536       2.58484833       0.13465499       0.00000000
Si       2.66086187       2.63388123      -0.09135591       0.00000000
Si       2.62477952      -2.85710310       0.11493936       0.00000000
Si       2.69956691       0.00783549      -2.79664104       0.00000000
