10
Lattice="16.28999089631971 0.0 0.0 0.0 16.28999089631971 0.0 0.0 0.0 34.33025523377368" Properties=species:S:1:pos:R:3:initial_magmoms:R:1 pbc="T T T"
Si       1.81498456       1.53979596       0.06484989       0.00000000
Si       0.01270294      -1.94605227       1.42151367       0.00000000
Si      -2.06083717       1.22010471       0.28658913       0.00000000
Si       0.09619245      -0.73287081      -2.39209919       0.00000000
Si      -1.31540677       0.98907993      -2.92672455       0.00000000
Si       2.82247219       0.38657799       1.90097029       0.00000000
Si      -1.90344319      -3.01019652       0.41429775       0.00000000
Si       1.24690990      -1.03469193       3.28551853       0.00000000
Si       1.77261427      -3.27474612       0.61712101       0.00000000
Si      -3.29099281       0.88181028      -1.69045704       0.00000000
