10
Lattice="16.28999089631971 0.0 0.0 0.0 16.28999089631971 0.0 0.0 0.0 34.33025523377368" Properties=species:S:1:pos:R:3:initial_magmoms:R:1 pbc="T T T"
Si       1.70093664       1.45399653       0.62941125       0.00000000
Si      -1.78567722       1.40367672      -0.60781751       0.00000000
Si       0.85967217      -0.71409496      -2.09380344       0.00000000
Si      -0.37567998      -1.01478881       2.11965413       0.00000000
Si       0.49956543       2.38254282       2.41540945       0.00000000
Si      -2.64916777      -0.20006889      -2.17320936       0.00000000
Si      -1.03693995      -1.80923975      -2.88861795       0.00000000
Si       3.27958425      -0.02233359       1.42223461       0.00000000
Si       2.13293115       2.53949697      -1.41118026       0.00000000
Si      -1.12081716       0.87421914       3.32869774       0.00000000
