10
Lattice="16.28999089631971 0.0 0.0 0.0 16.28999089631971 0.0 0.0 0.0 34.33025523377368" Properties=species:S:1:pos:R:3:initial_magmoms:R:1 pbc="T T T"
Si      -1.03583223      -1.61775175       1.36154696       0.00000000
Si      -0.74243304       2.25139203      -0.29637326       0.00000000
Si       1.63515762       1.08009216       1.38796411       0.00000000
Si      -0.35751663      -0.44843112      -2.38279569       0.00000000
Si       0.66570714       2.85478992      -2.20990842       0.00000000
Si       0.27743499       2.39140458       2.82428100       0.00000000
Si      -2.45648313      -0.35966691       2.81987299       0.00000000
Si      -2.27418174      -1.99446615      -2.30256584       0.00000000
Si      -1.91863620      -3.27850001      -0.25019904       0.00000000
Si      -2.72629440       2.21071590      -1.53150787       0.00000000
