10
Lattice="16.28999089631971 0.0 0.0 0.0 16.28999089631971 0.0 0.0 0.0 34.33025523377368" Properties=species:S:1:pos:R:3:initial_magmoms:R:1 pbc="T T T"
Si      -0.00645084      -1.72760337      -1.60908197       0.00000000
Si       1.01341719      -1.58759082       1.51157228       0.00000000
Si       1.23300639       1.52653590      -1.47196686       0.00000000
Si      -1.69766235       1.11158073       1.48737974       0.00000000
Si       2.35576206      -0.25464528       2.87790004       0.00000000
Si       2.37113982      -2.89890324       0.07525539       0.00000000
Si       2.53970874       2.75608881       0.06661790       0.00000000
Si      -0.35473104       2.45972484       2.87759107       0.00000000
Si      -1.99031220      -1.76827950      -2.84421659       0.00000000
Si      -2.92130199       2.65917960       0.14762018       0.00000000
