10
Lattice="16.28999089631971 0.0 0.0 0.0 16.28999089631971 0.0 0.0 0.0 34.33025523377368" Properties=species:S:1:pos:R:3:initial_magmoms:R:1 pbc="T T T"
Si      -1.35063648       1.34685720      -1.36171033       0.00000000
Si       1.35782037       1.35537687       1.35566821       0.00000000
Si       1.35081567      -1.35301482      -1.36517769       0.00000000
Si      -1.35770634      -1.35935163       1.35570254       0.00000000
Si      -0.00045612       2.71365336       2.71356788       0.00000000
Si       2.71480995      -0.00188964       2.71339623       0.00000000
Si      -2.71362078      -2.71570590      -0.00367334       0.00000000
Si      -2.71555929      -0.00156384       2.71411717       0.00000000
Si      -2.71552671       2.71419093      -0.00350169       0.00000000
Si      -0.00035838      -2.71686249       2.71353355       0.00000000
