10
Lattice="16.28999089631971 0.0 0.0 0.0 16.28999089631971 0.0 0.0 0.0 34.33025523377368" Properties=species:S:1:pos:R:3:initial_magmoms:R:1 pbc="T T T"
Si      -0.98730432      -0.74803680       1.97042043       0.00000000
Si       0.74898162       2.23055712       0.05523741       0.00000000
Si       2.03804190      -1.20023091      -0.29427911       0.00000000
Si      -1.29150378      -1.96745733      -1.75942656       0.00000000
Si       2.34813834       2.17111491      -1.86427122       0.00000000
Si       0.78457527      -0.94465710       3.51281100       0.00000000
Si      -1.20881574       3.58168230      -0.16907660       0.00000000
Si       3.75736995       0.49780611      -0.63442347       0.00000000
Si      -2.13983811      -2.79901296       1.59186049       0.00000000
Si      -3.83225508       0.37478403       0.46579316       0.00000000
