10
Lattice="16.28999089631971 0.0 0.0 0.0 16.28999089631971 0.0 0.0 0.0 34.33025523377368" Properties=species:S:1:pos:R:3:initial_magmoms:R:1 pbc="T T T"
Si       1.58467491       0.83263077      -1.50668708       0.00000000
Si      -1.07074170      -1.68086736      -1.34619305       0.00000000
Si      -1.75809825       1.81257201      -0.11819913       0.00000000
Si       1.28272347       0.12996162       2.32707765       0.00000000
Si       2.73940785       2.27672298      -0.02183405       0.00000000
Si       0.26562474       2.22091344      -2.91587619       0.00000000
Si      -1.32980157       2.81548215       2.14612278       0.00000000
Si       2.67747327      -2.69535969      -0.04099035       0.00000000
Si      -2.45750940      -0.49415715      -2.89795578       0.00000000
Si      -2.92425048      -2.53983906       0.05856745       0.00000000
