10
Lattice="16.28999089631971 0.0 0.0 0.0 16.28999089631971 0.0 0.0 0.0 34.33025523377368" Properties=species:S:1:pos:R:3:initial_magmoms:R:1 pbc="T T T"
Si      -1.34723967       1.34817669       1.35985650       0.00000000
Si       1.36818081       1.34078103      -1.36274024       0.00000000
Si       1.36879983      -1.36676358       1.35384870       0.00000000
Si      -1.36108556      -1.36912563      -1.39697439       0.00000000
Si       2.12977089      -0.61926435      -2.50460293       0.00000000
Si       0.37688544      -2.46178390      -2.70209127       0.00000000
Si      -2.70287657       2.69868285      -0.00054928       0.00000000
Si       0.00885199       2.70396081       2.71391118       0.00000000
Si      -2.70509201      -0.00892692       2.71439181       0.00000000
Si       2.73178413       2.69579952      -0.00418829       0.00000000
