10
Lattice="16.28999089631971 0.0 0.0 0.0 16.28999089631971 0.0 0.0 0.0 34.33025523377368" Properties=species:S:1:pos:R:3:initial_magmoms:R:1 pbc="T T T"
Si       1.78567722      -1.40367672       0.60781751       0.00000000
Si      -1.87958092       0.13677084       1.42068975       0.00000000
Si      -0.86349055      -1.60374561      -1.56539185       0.00000000
Si       0.66183012       2.36695329      -0.65763074       0.00000000
Si       0.75883707       1.12765896      -2.90437555       0.00000000
Si      -3.04047053       1.67148432       0.06289306       0.00000000
Si       1.17893988       2.79598302       1.97546698       0.00000000
Si      -1.02199387      -0.33555771      -3.52595949       0.00000000
Si       3.48661386       0.05031981       1.23722876       0.00000000
Si       2.64534939      -2.11777168      -1.48598593       0.00000000
