10
Lattice="16.28999089631971 0.0 0.0 0.0 16.28999089631971 0.0 0.0 0.0 34.33025523377368" Properties=species:S:1:pos:R:3:initial_magmoms:R:1 pbc="T T T"
Si       1.31520573       1.12689333       1.60277752       0.00000000
Si      -0.61765164      -2.05842069       1.02070772       0.00000000
Si       1.64471985      -0.39980547      -1.67631297       0.00000000
Si      -1.76857272       1.28751273      -0.95479359       0.00000000
Si       3.20769648      -0.37857960       1.66601389       0.00000000
Si       3.41080020      -1.39044924      -0.45642100       0.00000000
Si       0.01518228       1.16708076       3.60807751       0.00000000
Si       2.40539769       1.72346882      -2.45801332       0.00000000
Si       1.83343950       3.30340742       0.81235728       0.00000000
Si       0.13561425      -2.26268100       3.20232800       0.00000000
