10
Lattice="16.28999089631971 0.0 0.0 0.0 16.28999089631971 0.0 0.0 0.0 34.33025523377368" Properties=species:S:1:pos:R:3:initial_magmoms:R:1 pbc="T T T"
Si      -1.35619137      -1.35745229       1.35656079       0.00000000
Si       1.35764118      -1.35745229      -1.35700709       0.00000000
Si      -1.35860229       1.35733227      -1.35693843       0.00000000
Si       1.35842310       1.35791382       1.35741905       0.00000000
Si      -2.71492398       0.00105356      -2.71246931       0.00000000
Si       0.00228060      -2.71380656      -2.71452913       0.00000000
Si      -0.00226431      -2.71405091       2.71490676       0.00000000
Si       0.00182448       2.71192722      -2.71724122       0.00000000
Si      -2.71477737      -2.71488170      -0.00010299       0.00000000
Si       2.71480995       0.00005338      -2.71497542       0.00000000
