10
Lattice="16.28999089631971 0.0 0.0 0.0 16.28999089631971 0.0 0.0 0.0 34.33025523377368" Properties=species:S:1:pos:R:3:initial_magmoms:R:1 pbc="T T T"
Si      -1.69839540       1.08530496       1.33369683       0.00000000
Si       2.16163413       1.00580976      -0.41052142       0.00000000
Si       0.41791995      -2.09955294       1.14196225       0.00000000
Si      -1.45935594      -0.55395774      -2.11464191       0.00000000
Si       3.29680278      -1.03887846      -0.49816661       0.00000000
Si      -2.58124824      -2.43608479      -1.08981456       0.00000000
Si      -2.22653349       2.99244042      -0.08383453       0.00000000
Si      -0.56692458      -3.67343165      -0.33715763       0.00000000
Si      -1.13888277      -2.09349306       2.93321298       0.00000000
Si      -1.99062171       2.25899946      -2.44465884       0.00000000
