10
Lattice="16.28999089631971 0.0 0.0 0.0 16.28999089631971 0.0 0.0 0.0 34.33025523377368" Properties=species:S:1:pos:R:3:initial_magmoms:R:1 pbc="T T T"
Si       1.16510967       0.94203441       1.77473787       0.00000000
Si      -0.51823377      -2.17651409       0.79042024       0.00000000
Si       1.55680272      -0.00605988      -1.79125073       0.00000000
Si      -1.85986188       1.38847815      -0.55185916       0.00000000
Si      -0.55951263       3.17879802      -1.59951615       0.00000000
Si       0.57195819      -1.57993859      -3.27037060       0.00000000
Si      -0.12408093       2.80360674       2.41647369       0.00000000
Si      -2.94909273       0.21629862      -2.23500386       0.00000000
Si       1.13888277       2.09349306      -2.93321298       0.00000000
Si      -1.83343950      -3.30340742      -0.81235728       0.00000000
