10
Lattice="16.28999089631971 0.0 0.0 0.0 16.28999089631971 0.0 0.0 0.0 34.33025523377368" Properties=species:S:1:pos:R:3:initial_magmoms:R:1 pbc="T T T"
Si      -0.99173520      -1.39438816      -1.63614655       0.00000000
Si       0.30012696       1.97543943      -1.27083810       0.00000000
Si      -1.87730847       0.41906025       1.44084162       0.00000000
Si       1.93302027      -0.79659892       1.25792992       0.00000000
Si       0.93872754      -2.79053306       2.03115069       0.00000000
Si       0.81358776      -2.90514950      -1.95438819       0.00000000
Si       2.15946756       2.90564730      -0.36184109       0.00000000
Si      -1.52658477       0.24239520      -3.30277838       0.00000000
Si      -2.19587571       2.69490357       1.32943988       0.00000000
Si      -1.72794546       3.20368914      -0.91308231       0.00000000
