10
Lattice="16.28999089631971 0.0 0.0 0.0 16.28999089631971 0.0 0.0 0.0 34.33025523377368" Properties=species:S:1:pos:R:3:initial_magmoms:R:1 pbc="T T T"
Si       1.34325711       1.35066906       1.36620760       0.00000000
Si      -1.35005004      -1.34558658       1.37022424       0.00000000
Si       1.35703845      -1.35405738      -1.35491294       0.00000000
Si      -1.35708732       1.35734796      -1.35436366       0.00000000
Si      -2.53889424       0.21502800       2.72963445       0.00000000
Si       0.00004887      -2.71435383      -2.71277828       0.00000000
Si       2.71490769       0.00052128      -2.71270962       0.00000000
Si      -2.71529865       0.00096111      -2.71284695       0.00000000
Si      -0.00022806       2.71564074      -2.71301860       0.00000000
Si       2.71363707       2.71536381       0.00755266       0.00000000
