10
Lattice="16.28999089631971 0.0 0.0 0.0 16.28999089631971 0.0 0.0 0.0 34.33025523377368" Properties=species:S:1:pos:R:3:initial_magmoms:R:1 pbc="T T T"
Si       1.35708732      -1.35734796       1.35436366       0.00000000
Si      -1.35821133      -1.35638685      -1.35848329       0.00000000
Si       1.35685926       1.35829278      -1.35865494       0.00000000
Si      -1.36120869       1.35964485       1.35834597       0.00000000
Si       2.70034443      -0.00667890       2.72057126       0.00000000
Si       2.71412577      -2.71140534      -0.00054928       0.00000000
Si      -2.71406061      -2.71262709      -0.00075527       0.00000000
Si       0.00703728      -2.70293454       2.72458790       0.00000000
Si      -0.00162900      -2.71264338      -2.71590234       0.00000000
Si       2.71329498       2.71595025      -0.00010299       0.00000000
