10
Lattice="16.28999089631971 0.0 0.0 0.0 16.28999089631971 0.0 0.0 0.0 34.33025523377368" Properties=species:S:1:pos:R:3:initial_magmoms:R:1 pbc="T T T"
Si      -1.08782991      -1.09972161      -1.74796025       0.00000000
Si      -0.46793025      -0.50878557       2.24252219       0.00000000
Si      -0.84256767       2.19998079      -0.04730712       0.00000000
Si       2.02807242      -1.22824971      -0.35775579       0.00000000
Si      -0.14936301      -2.78462889       2.35392393       0.00000000
Si       0.32192298       3.25648503       1.67325758       0.00000000
Si      -3.29525523      -1.30331403      -1.04957948       0.00000000
Si       1.72794546      -3.20368914       0.91308231       0.00000000
Si       1.42203555       0.11085345       3.47158034       0.00000000
Si       0.20136069      -2.96129394      -2.38969607       0.00000000
