10
Lattice="16.28999089631971 0.0 0.0 0.0 16.28999089631971 0.0 0.0 0.0 34.33025523377368" Properties=species:S:1:pos:R:3:initial_magmoms:R:1 pbc="T T T"
Si      -2.19434445       0.80940123      -0.04648319       0.00000000
Si       0.83821824      -2.22700590      -0.20745785       0.00000000
Si       0.23587920       0.58560921      -2.36000038       0.00000000
Si       0.59691447       0.04992885       2.37061088       0.00000000
Si      -1.66482171       3.12142464      -0.21758528       0.00000000
Si      -0.13097160       2.86433586      -2.10351890       0.00000000
Si       1.86841413      -1.95030396       2.40841469       0.00000000
Si      -1.15758369      -3.27109716      -1.39271057       0.00000000
Si       2.64723903      -2.02362525      -1.84099530       0.00000000
Si       2.40712443       0.01278765      -2.97255547       0.00000000
