10
Lattice="16.28999089631971 0.0 0.0 0.0 16.28999089631971 0.0 0.0 0.0 34.33025523377368" Properties=species:S:1:pos:R:3:initial_magmoms:R:1 pbc="T T T"
Si      -1.30670235      -1.22955291      -1.53858475       0.00000000
Si      -1.53329625       1.06065819       1.45864873       0.00000000
Si       0.67678434       1.89306090      -1.30527621       0.00000000
Si       1.17147906      -1.62140886       1.43728843       0.00000000
Si       2.65944024       2.49140889      -0.12491414       0.00000000
Si      -0.18200817       2.42320266       2.81406289       0.00000000
Si      -2.53970874      -2.75608881      -0.06661790       0.00000000
Si      -2.80057680       2.51599050       0.17030906       0.00000000
Si      -1.08585882       3.49542675      -0.97296701       0.00000000
Si       2.53030941      -0.29219373       2.80997759       0.00000000
