10
Lattice="16.28999089631971 0.0 0.0 0.0 16.28999089631971 0.0 0.0 0.0 34.33025523377368" Properties=species:S:1:pos:R:3:initial_magmoms:R:1 pbc="T T T"
Si       1.35883035       1.32921513       1.37268916       0.00000000
Si       1.49079564      -1.14316704      -1.44402060       0.00000000
Si      -1.35542574      -1.38932523       1.37399371       0.00000000
Si      -1.17147906       1.62140886      -1.43728843       0.00000000
Si      -2.70477531       2.68206705       0.02136030       0.00000000
Si       2.73370635       2.67906969      -0.01997679       0.00000000
Si      -2.69777061      -2.72227077       0.00766595       0.00000000
Si       0.00480555       2.68962561       2.73278597       0.00000000
Si       2.71748151      -2.71712313      -0.00320988       0.00000000
Si      -2.70941796      -0.02459790       2.73271731       0.00000000
