10
Lattice="16.28999089631971 0.0 0.0 0.0 16.28999089631971 0.0 0.0 0.0 34.33025523377368" Properties=species:S:1:pos:R:3:initial_magmoms:R:1 pbc="T T T"
Si      -1.38844557       1.28523213      -1.38646246       0.00000000
Si       1.31517315      -1.44563976      -1.38605050       0.00000000
Si      -1.68089994      -0.91797408       1.48708450       0.00000000
Si       1.87194906       0.91417851       1.25312368       0.00000000
Si      -0.20103489      -0.59564385       3.37669146       0.00000000
Si      -2.56697820      -2.58128082      -0.02262365       0.00000000
Si      -0.02972925       2.63638989      -2.74820713       0.00000000
Si      -2.77369830       2.61001638       0.02138776       0.00000000
Si       3.54555108      -0.84590712       1.11738177       0.00000000
Si       2.68555311      -0.08094501      -2.74470544       0.00000000
