10
Lattice="16.28999089631971 0.0 0.0 0.0 16.28999089631971 0.0 0.0 0.0 34.33025523377368" Properties=species:S:1:pos:R:3:initial_magmoms:R:1 pbc="T T T"
Si      -1.34522820      -1.36065483      -1.36795844       0.00000000
Si       1.40726052      -1.24675515       1.42175398       0.00000000
Si       1.37303523       1.35423657      -1.36785545       0.00000000
Si      -1.49224545       1.27472508       1.40441720       0.00000000
Si       2.53272033       0.34805214       2.79970254       0.00000000
Si      -2.70228294       2.71280628      -0.00566450       0.00000000
Si      -2.70394452      -2.71181259      -0.00621378       0.00000000
Si      -2.70044217      -0.00291591      -2.72822691       0.00000000
Si       2.73720870      -2.69485470      -0.00175084       0.00000000
Si       2.73051351       2.70342324       0.00686605       0.00000000
