10
Lattice="16.28999089631971 0.0 0.0 0.0 16.28999089631971 0.0 0.0 0.0 34.33025523377368" Properties=species:S:1:pos:R:3:initial_magmoms:R:1 pbc="T T T"
Si       1.09946097      -0.83272851       1.89235339       0.00000000
Si      -1.15473294      -1.44409221      -1.48485303       0.00000000
Si       1.44221886       1.21766121      -1.48207228       0.00000000
Si      -1.66726521       1.07699706       1.84126994       0.00000000
Si      -1.45668438      -2.14676136       2.34891171       0.00000000
Si      -2.36936421       2.65649175      -0.00102991       0.00000000
Si      -2.73940785      -2.27672298       0.02183405       0.00000000
Si       2.25653967       1.12985811       2.55077372       0.00000000
Si       2.60029125       2.77373088      -0.15826257       0.00000000
Si      -2.47378311      -0.05580954      -2.89404213       0.00000000
