10
Lattice="16.28999089631971 0.0 0.0 0.0 16.28999089631971 0.0 0.0 0.0 34.33025523377368" Properties=species:S:1:pos:R:3:initial_magmoms:R:1 pbc="T T T"
Si      -1.35729909      -1.35684135       1.35745338       0.00000000
Si       1.35790182      -1.35763956      -1.35759070       0.00000000
Si      -1.35782037       1.35777053      -1.35762503       0.00000000
Si       1.35840681       1.35848566       1.35693843       0.00000000
Si       2.71103067       0.00194013       2.71676060       0.00000000
Si      -0.00083079      -2.71296756      -2.71600533       0.00000000
Si       2.71404736       0.00134253      -2.71507841       0.00000000
Si       2.71458494      -2.71458027       0.00000000       0.00000000
Si      -2.71471221      -2.71467801      -0.00054928       0.00000000
Si      -2.71454931       2.71485133      -0.00010299       0.00000000
