10
Lattice="16.28999089631971 0.0 0.0 0.0 16.28999089631971 0.0 0.0 0.0 34.33025523377368" Properties=species:S:1:pos:R:3:initial_magmoms:R:1 pbc="T T T"
Si       1.35856971      -1.35608874      -1.36188199       0.00000000
Si      -1.35739683       1.36057338      -1.36105806       0.00000000
Si       1.37212299       1.34327340       1.36967496       0.00000000
Si      -1.36482507      -1.34725468       1.38069498       0.00000000
Si       0.01969461       2.70811476       2.70907061       0.00000000
Si       2.71119357      -2.71263428      -0.00205982       0.00000000
Si      -2.71233387      -2.71564793      -0.00130455       0.00000000
Si      -2.71443528       2.71463076      -0.00614512       0.00000000
Si       2.71672063       2.71476108      -0.00140754       0.00000000
Si       2.71504382       0.00092853      -2.71803082       0.00000000
