10
Lattice="16.28999089631971 0.0 0.0 0.0 16.28999089631971 0.0 0.0 0.0 34.33025523377368" Properties=species:S:1:pos:R:3:initial_magmoms:R:1 pbc="T T T"
Si       0.32329134      -2.30170044       0.34017869       0.00000000
Si      -0.02357163       1.52348967       1.86993572       0.00000000
Si      -2.10740472      -0.14385699      -1.23575256       0.00000000
Si       1.72927377       0.49893012      -1.79787647       0.00000000
Si       2.37110954      -2.42115012       1.75987286       0.00000000
Si       0.94601326      -3.18727354      -1.89472218       0.00000000
Si      -2.34751932       1.89255591      -2.36731273       0.00000000
Si       2.25225933       2.15300043       2.23881452       0.00000000
Si      -3.91642551      -0.34723764       0.39778489       0.00000000
Si      -0.49653549       3.85100487       0.98098759       0.00000000
