10
Lattice="16.28999089631971 0.0 0.0 0.0 16.28999089631971 0.0 0.0 0.0 34.33025523377368" Properties=species:S:1:pos:R:3:initial_magmoms:R:1 pbc="T T T"
Si      -0.32329134       2.30170044      -0.34017869       0.00000000
Si       0.62272192      -0.88557311      -2.23490086       0.00000000
Si       2.04781820      -0.11944968       1.41969417       0.00000000
Si      -1.33439535      -2.63751620       0.65073035       0.00000000
Si       2.54142638      -2.31782495       0.42899111       0.00000000
Si      -2.43069606       2.15784345      -1.57593125       0.00000000
Si       1.40598243       2.80063056      -2.13805516       0.00000000
Si      -0.58896495      -2.86854098      -2.56258333       0.00000000
Si       0.72644182      -3.85762091       0.36414122       0.00000000
Si       2.81579885      -1.89073373      -2.19253731       0.00000000
