10
Lattice="16.28999089631971 0.0 0.0 0.0 16.28999089631971 0.0 0.0 0.0 34.33025523377368" Properties=species:S:1:pos:R:3:initial_magmoms:R:1 pbc="T T T"
Si      -1.35703845       1.35405738       1.35491294       0.00000000
Si       1.35786924       1.35457866      -1.35779668       0.00000000
Si      -1.35698958      -1.36029645      -1.35786534       0.00000000
Si       1.35739683      -1.36057338       1.36105806       0.00000000
Si      -2.71412577       2.71140534       0.00054928       0.00000000
Si      -0.01378134       2.70472644       2.72112054       0.00000000
Si       0.00047241       2.71213839      -2.71525006       0.00000000
Si       2.71518462       2.71308321      -0.00061794       0.00000000
Si       2.71533123      -0.00096111      -2.71446047       0.00000000
Si      -2.71402803      -2.71699770      -0.00034330       0.00000000
