10
Lattice="16.28999089631971 0.0 0.0 0.0 16.28999089631971 0.0 0.0 0.0 34.33025523377368" Properties=species:S:1:pos:R:3:initial_magmoms:R:1 pbc="T T T"
Si      -1.34325711      -1.35066906      -1.36620760       0.00000000
Si       1.37037996       1.36469475      -1.35865494       0.00000000
Si       1.39087278      -1.35718506       1.34900813       0.00000000
Si      -1.31517315       1.44563976       1.38605050       0.00000000
Si       2.23037793       0.59973264       2.50343227       0.00000000
Si       0.55677591       2.35981827       2.63917418       0.00000000
Si      -2.69330715      -2.69625564       0.00401664       0.00000000
Si      -2.70034443       0.00667890      -2.72057126       0.00000000
Si       0.01378134      -2.70472644      -2.72112054       0.00000000
Si      -2.70361872       2.73087189      -0.00041196       0.00000000
