10
Lattice="16.28999089631971 0.0 0.0 0.0 16.28999089631971 0.0 0.0 0.0 34.33025523377368" Properties=species:S:1:pos:R:3:initial_magmoms:R:1 pbc="T T T"
Si       0.38146293       0.10034640       2.27400305       0.00000000
Si      -0.28494468      -2.27937825      -0.54252133       0.00000000
Si       1.86783976       0.31921884      -1.41444164       0.00000000
Si      -2.30260779       0.39196998      -0.58337435       0.00000000
Si      -2.43318843      -1.80977013       0.19204356       0.00000000
Si      -0.28391841      -1.65214809      -2.81357197       0.00000000
Si      -2.09334645      -0.08314416      -2.87461120       0.00000000
Si       1.34790858       2.13258906       2.73886929       0.00000000
Si       2.67985880       2.49074100      -0.83319576       0.00000000
Si       2.16915101      -1.19596293       2.95865171       0.00000000
