10
Lattice="16.28999089631971 0.0 0.0 0.0 16.28999089631971 0.0 0.0 0.0 34.33025523377368" Properties=species:S:1:pos:R:3:initial_magmoms:R:1 pbc="T T T"
Si       1.35895161      -1.35602847       1.35992516       0.00000000
Si      -1.35809730       1.35948195       1.35858628       0.00000000
Si      -1.34311050      -1.36603053      -1.39245996       0.00000000
Si       1.36283408       1.34933328      -1.39251146       0.00000000
Si       2.71284279       2.71337643      -0.00243745       0.00000000
Si      -2.71467963       2.71225242       0.00171651       0.00000000
Si       2.71361656      -2.71565703      -0.00164785       0.00000000
Si       2.71490673       0.00016290       2.71686359       0.00000000
Si       0.00063531       2.71480995       2.71700091       0.00000000
Si      -2.71467963       0.00043983       2.71748153       0.00000000
