10
Lattice="16.28999089631971 0.0 0.0 0.0 16.28999089631971 0.0 0.0 0.0 34.33025523377368" Properties=species:S:1:pos:R:3:initial_magmoms:R:1 pbc="T T T"
Si      -1.35643572      -1.35765747      -1.35855195       0.00000000
Si       1.35856971       1.35782037      -1.35827731       0.00000000
Si      -1.35785295       1.35940050       1.35851762       0.00000000
Si       1.35742941      -1.35793440       1.36201931       0.00000000
Si      -2.71384884       0.00016290      -2.71535306       0.00000000
Si      -2.71329498      -2.71595025       0.00010299       0.00000000
Si      -2.71306692       2.71713942      -0.00175084       0.00000000
Si       2.71601541      -2.71427238      -0.00106424       0.00000000
Si       2.71591767       2.71467963      -0.00188817       0.00000000
Si       0.00097740       2.71547784      -2.71531872       0.00000000
