10
Lattice="16.28999089631971 0.0 0.0 0.0 16.28999089631971 0.0 0.0 0.0 34.33025523377368" Properties=species:S:1:pos:R:3:initial_magmoms:R:1 pbc="T T T"
Si      -1.35742941       1.35793440      -1.36201931       0.00000000
Si       1.35858600      -1.35633798      -1.36308355       0.00000000
Si      -1.37037996      -1.36469475       1.35865494       0.00000000
Si       1.36715454       1.38313503       1.36270591       0.00000000
Si       2.71415426       2.71362078      -0.00449727       0.00000000
Si      -2.71363707      -2.71536381      -0.00755266       0.00000000
Si       0.02049282      -2.72187981       2.70766307       0.00000000
Si      -2.68555311       0.08094501       2.74470544       0.00000000
Si      -2.71528236       2.71733490      -0.00350169       0.00000000
Si       2.71751884      -2.71523349      -0.00281508       0.00000000
