10
Lattice="16.28999089631971 0.0 0.0 0.0 16.28999089631971 0.0 0.0 0.0 34.33025523377368" Properties=species:S:1:pos:R:3:initial_magmoms:R:1 pbc="T T T"
Si       1.12427620       1.84643892       0.79656536       0.00000000
Si      -0.49625856       0.73189341      -2.15717712       0.00000000
Si       1.70606052      -1.55251845       0.35607361       0.00000000
Si      -1.91301615      -0.16381224       1.37049889       0.00000000
Si      -2.71205694      -2.14900938       0.52892654       0.00000000
Si      -0.28732302       3.56838966       0.26193999       0.00000000
Si       1.26322338      -2.07216945       2.68260197       0.00000000
Si       0.73961487      -3.58476111      -0.10879264       0.00000000
Si      -0.87535944      -0.43088679       3.60296230       0.00000000
Si      -0.77801040       3.08307798      -2.00897333       0.00000000
