10
Lattice="16.28999089631971 0.0 0.0 0.0 16.28999089631971 0.0 0.0 0.0 34.33025523377368" Properties=species:S:1:pos:R:3:initial_magmoms:R:1 pbc="T T T"
Si      -1.37424558       1.17605655      -1.58001655       0.00000000
Si      -1.29177745      -1.47422871       1.43819819       0.00000000
Si       0.87395850       1.85142366       1.37523646       0.00000000
Si       1.34157924      -1.51728318      -1.56662774       0.00000000
Si      -2.64598665       2.66813910      -0.19111664       0.00000000
Si       2.72746728       2.71039536      -0.02952404       0.00000000
Si      -0.01508454       2.53342080      -2.95961296       0.00000000
Si       0.33633963      -2.69909010       2.81745129       0.00000000
Si      -2.70696827      -2.89377189      -0.02547306       0.00000000
Si       2.88903150      -2.72504007      -0.15180847       0.00000000
