10
Lattice="16.28999089631971 0.0 0.0 0.0 16.28999089631971 0.0 0.0 0.0 34.33025523377368" Properties=species:S:1:pos:R:3:initial_magmoms:R:1 pbc="T T T"
Si      -1.25392275       1.46720839      -1.36596729       0.00000000
Si       1.47056346      -1.26412029      -1.37393191       0.00000000
Si      -1.59412311      -1.13674878       1.34742894       0.00000000
Si       2.42504343       0.79954156       1.43322030       0.00000000
Si       0.80817948       0.06882525       3.04076973       0.00000000
Si      -0.05962140      -2.14387803       2.75524483       0.00000000
Si      -0.93273282       1.80449936       3.00290343       0.00000000
Si      -2.60143155       0.09881514      -2.74796682       0.00000000
Si       0.11308518      -2.61330696      -2.74865342       0.00000000
Si      -2.75219550      -2.69281845       0.02361923       0.00000000
