10
Lattice="16.28999089631971 0.0 0.0 0.0 16.28999089631971 0.0 0.0 0.0 34.33025523377368" Properties=species:S:1:pos:R:3:initial_magmoms:R:1 pbc="T T T"
Si      -0.82709217      -0.25702362      -2.21574457       0.00000000
Si      -2.18540124      -0.39478815       0.90065475       0.00000000
Si       1.44676377      -1.86926121       0.42449384       0.00000000
Si       1.21769379       2.03577759       0.44718615       0.00000000
Si       1.81131768       1.34091135       2.63048862       0.00000000
Si       1.05116112       0.37971990      -3.51696496       0.00000000
Si      -0.11303631       0.35350929       3.69678694       0.00000000
Si       3.37129695      -1.45741743      -1.05455737       0.00000000
Si       0.28763253      -3.86341785      -0.31199353       0.00000000
Si      -2.38850496       0.61708149       3.02308964       0.00000000
