10
Lattice="16.28999089631971 0.0 0.0 0.0 16.28999089631971 0.0 0.0 0.0 34.33025523377368" Properties=species:S:1:pos:R:3:initial_magmoms:R:1 pbc="T T T"
Si      -1.04412384       0.18088416      -2.08477457       0.00000000
Si       1.54916827      -1.75889646       0.15064124       0.00000000
Si       1.41980612       1.88554211      -0.09190214       0.00000000
Si      -1.74539205      -0.37576143       1.59385165       0.00000000
Si       2.50213815       1.32009992      -2.02191584       0.00000000
Si       3.09287546      -0.99670365      -1.52241035       0.00000000
Si      -1.91192472      -2.03181912      -2.37029947       0.00000000
Si      -0.03311757       3.68768852      -0.36166944       0.00000000
Si      -2.29016223       2.94214409      -0.11528106       0.00000000
Si      -2.79588528       1.74494475       1.89691931       0.00000000
