10
Lattice="16.28999089631971 0.0 0.0 0.0 16.28999089631971 0.0 0.0 0.0 34.33025523377368" Properties=species:S:1:pos:R:3:initial_magmoms:R:1 pbc="T T T"
Si      -0.14444343       1.74004893       1.59577415       0.00000000
Si      -2.27546865       0.26357220      -0.67369731       0.00000000
Si       1.92435399       0.98740206      -1.06629832       0.00000000
Si       0.24868314      -2.40968196       0.37632847       0.00000000
Si       1.70349417       2.78880632       0.50530731       0.00000000
Si      -3.04924365      -1.21401225       1.01964348       0.00000000
Si      -2.07236493      -0.74829744      -2.79613219       0.00000000
Si       0.24949764       0.60510834       3.58909287       0.00000000
Si      -1.98943254      -3.09334068       0.11184803       0.00000000
Si       0.11303631      -0.35350929      -3.69678694       0.00000000
