10
Lattice="16.28999089631971 0.0 0.0 0.0 16.28999089631971 0.0 0.0 0.0 34.33025523377368" Properties=species:S:1:pos:R:3:initial_magmoms:R:1 pbc="T T T"
Si      -1.03286745       1.63781289      -1.29596786       0.00000000
Si       1.97558604       0.10726965      -1.23626751       0.00000000
Si       1.23015564       0.33829443       1.97704617       0.00000000
Si      -1.22391657      -1.94370651      -0.56607189       0.00000000
Si      -0.76406616       0.38825586      -3.28818801       0.00000000
Si       0.34989291      -3.62493225      -0.12770862       0.00000000
Si      -3.32112375       0.54911961       1.56079160       0.00000000
Si      -3.29719374       1.66604346      -0.61677771       0.00000000
Si      -2.91446019      -2.01613185       1.23125529       0.00000000
Si      -1.73200167      -1.72864593      -2.90166345       0.00000000
