10
Lattice="16.28999089631971 0.0 0.0 0.0 16.28999089631971 0.0 0.0 0.0 34.33025523377368" Properties=species:S:1:pos:R:3:initial_magmoms:R:1 pbc="T T T"
Si       2.26408194       0.85001220      -0.41649489       0.00000000
Si      -1.54951620       1.90312812      -0.15139651       0.00000000
Si      -0.66183012      -2.36695329       0.65763074       0.00000000
Si       0.09700695      -1.23929433      -2.24674481       0.00000000
Si       0.51710976       0.42902973       2.63309772       0.00000000
Si       3.25677825      -1.23113304      -0.14573201       0.00000000
Si       2.20468860      -2.37553812      -1.92009225       0.00000000
Si      -3.70230065      -0.69546897       0.72052380       0.00000000
Si      -2.26492739       1.87857909      -2.53402055       0.00000000
Si      -2.54141105      -2.23018245       2.07832048       0.00000000
