10
Lattice="16.28999089631971 0.0 0.0 0.0 16.28999089631971 0.0 0.0 0.0 34.33025523377368" Properties=species:S:1:pos:R:3:initial_magmoms:R:1 pbc="T T T"
Si       1.35778779       1.35798551       1.35608017       0.00000000
Si      -1.35730724      -1.35748975       1.35769369       0.00000000
Si      -1.35806472       1.35715309      -1.35789967       0.00000000
Si       1.35852084      -1.35745717      -1.35714441       0.00000000
Si       2.71500543       0.00078805      -2.71274395       0.00000000
Si       0.00187335      -2.71369741      -2.71559337       0.00000000
Si       2.71487511       2.71469164      -0.00030897       0.00000000
Si      -2.71516970       2.71500115       0.00051495       0.00000000
Si       2.71515204      -2.71514722      -0.00037763       0.00000000
Si      -2.71546569      -2.71508206      -0.00027464       0.00000000
