10
Lattice="16.28999089631971 0.0 0.0 0.0 16.28999089631971 0.0 0.0 0.0 34.33025523377368" Properties=species:S:1:pos:R:3:initial_magmoms:R:1 pbc="T T T"
Si      -0.20696445      -0.82233549      -2.21481765       0.00000000
Si       2.16450117       0.65728521       0.77679112       0.00000000
Si      -0.50365748      -1.33962444       1.93248548       0.00000000
Si      -1.47104401       1.98656550      -0.10807170       0.00000000
Si       0.96205482       1.71686826       2.51036699       0.00000000
Si      -3.25245230       0.35838000       0.67465855       0.00000000
Si       0.06643062       3.36329856       1.01511188       0.00000000
Si      -1.99465253       0.47397384      -2.89946632       0.00000000
Si       3.19308435      -1.44752940       0.93083106       0.00000000
Si       1.45950255      -2.77368201       1.85486473       0.00000000
