10
Lattice="16.28999089631971 0.0 0.0 0.0 16.28999089631971 0.0 0.0 0.0 34.33025523377368" Properties=species:S:1:pos:R:3:initial_magmoms:R:1 pbc="T T T"
Si       1.51552386      -1.18107387      -1.35033671       0.00000000
Si       1.36130643       1.34076474       1.37939386       0.00000000
Si      -1.35154383      -1.37613033       1.37678476       0.00000000
Si      -1.20584444       1.44234918      -1.58949514       0.00000000
Si       0.21548412      -2.44413531      -2.76263755       0.00000000
Si      -2.70232632       2.68885998      -0.01407885       0.00000000
Si       2.71915938       2.71332756       0.01724066       0.00000000
Si       0.00949707       2.69878059       2.73770550       0.00000000
Si      -2.69604701      -2.74462065       0.00327511       0.00000000
Si      -2.70620878      -0.01650177       2.73835777       0.00000000
