10
Lattice="16.28999089631971 0.0 0.0 0.0 16.28999089631971 0.0 0.0 0.0 34.33025523377368" Properties=species:S:1:pos:R:3:initial_magmoms:R:1 pbc="T T T"
Si       1.35721275       1.35589815      -1.35652646       0.00000000
Si      -1.35987278       1.35394335       1.35913556       0.00000000
Si      -1.35753199      -1.35917244      -1.35645780       0.00000000
Si       1.35874401      -1.35918873       1.36013114       0.00000000
Si      -0.00089269       2.71345788      -2.71432315       0.00000000
Si      -2.71553878       2.71293660      -0.00027464       0.00000000
Si       2.71503312      -0.00104256      -2.71380819       0.00000000
Si      -2.71485460      -0.00206883      -2.71404850       0.00000000
Si       2.71615713       2.71406061      -0.00024031       0.00000000
Si      -0.00135044      -2.71717200      -2.71377386       0.00000000
