10
Lattice="16.28999089631971 0.0 0.0 0.0 16.28999089631971 0.0 0.0 0.0 34.33025523377368" Properties=species:S:1:pos:R:3:initial_magmoms:R:1 pbc="T T T"
Si      -1.43471440       1.24792803      -1.40228872       0.00000000
Si       1.27174108      -1.49208255      -1.38889991       0.00000000
Si      -1.94187097      -0.90016911       1.09709258       0.00000000
Si       1.34871296       1.18519524       1.61877543       0.00000000
Si       2.64598665      -2.66813910       0.19111664       0.00000000
Si       2.74156008       2.59734276       0.16495697       0.00000000
Si      -0.08771468       2.57841378      -2.76949190       0.00000000
Si       2.63090211      -0.13471830      -2.76849632       0.00000000
Si      -2.76466258       2.69602758       0.02121611       0.00000000
Si      -3.61547299       0.85991652       1.23283448       0.00000000
