10
Lattice="16.28999089631971 0.0 0.0 0.0 16.28999089631971 0.0 0.0 0.0 34.33025523377368" Properties=species:S:1:pos:R:3:initial_magmoms:R:1 pbc="T T T"
Si      -0.68776380      -1.87830216       1.40774723       0.00000000
Si       1.93567554       1.32859611       0.77287747       0.00000000
Si      -2.34228113       0.21862809      -1.23966621       0.00000000
Si      -0.81245886       0.24513192       3.02926908       0.00000000
Si      -2.67855560      -1.86375519       0.07257420       0.00000000
Si      -0.88557653      -0.74986128      -3.13840503       0.00000000
Si       0.52862679       2.10883824       2.57367201       0.00000000
Si      -2.88574811       1.99425438       0.44073206       0.00000000
Si       3.14449128      -2.25308619       0.94195407       0.00000000
Si       3.89347290      -0.02252907       0.99719148       0.00000000
