10
Lattice="16.28999089631971 0.0 0.0 0.0 16.28999089631971 0.0 0.0 0.0 34.33025523377368" Properties=species:S:1:pos:R:3:initial_magmoms:R:1 pbc="T T T"
Si       1.61374441      -1.68070446       0.33224840       0.00000000
Si      -0.52826711       0.31348476      -2.30253151       0.00000000
Si      -1.92052488       0.24555546       1.39106272       0.00000000
Si       1.10903135       2.01864051       0.66161305       0.00000000
Si      -0.65446657       3.31882686      -0.12825791       0.00000000
Si       3.23147173      -1.08745524      -1.30173535       0.00000000
Si      -0.67826577       2.68056837      -2.50312330       0.00000000
Si      -2.20227672       2.59674003       1.53926651       0.00000000
Si      -1.42426632      -0.48633795       3.54823984       0.00000000
Si       2.34557266      -1.65218067       2.59118045       0.00000000
