10
Lattice="16.28999089631971 0.0 0.0 0.0 16.28999089631971 0.0 0.0 0.0 34.33025523377368" Properties=species:S:1:pos:R:3:initial_magmoms:R:1 pbc="T T T"
Si      -1.61374441       1.68070446      -0.33224840       0.00000000
Si       1.61772732       0.59324922      -1.63398374       0.00000000
Si       0.73182825       0.02852379       2.25893206       0.00000000
Si      -0.81201903      -2.17152216      -0.58124588       0.00000000
Si       0.63366471      -0.86073102      -3.36783425       0.00000000
Si      -0.50471307       3.69934497       0.32936465       0.00000000
Si      -2.67985880      -2.49074100       0.83319576       0.00000000
Si       2.48730381      -1.62165321       2.36940688       0.00000000
Si      -1.33195022      -0.35815194       3.57206505       0.00000000
Si      -2.14201152       1.99418922      -2.63477990       0.00000000
