10
Lattice="16.28999089631971 0.0 0.0 0.0 16.28999089631971 0.0 0.0 0.0 34.33025523377368" Properties=species:S:1:pos:R:3:initial_magmoms:R:1 pbc="T T T"
Si       1.30003974       1.26306144       1.41230084       0.00000000
Si       1.20244635      -1.05958305      -1.73357587       0.00000000
Si      -0.89562420       1.64643030      -1.49525510       0.00000000
Si      -1.34902051      -1.51936830       1.35111742       0.00000000
Si      -0.96205482      -1.71686826      -2.51036699       0.00000000
Si      -1.46571230      -3.05649270      -0.57788151       0.00000000
Si      -2.43309884       0.26969724      -2.61843869       0.00000000
Si      -0.21548412       2.44413531       2.76263755       0.00000000
Si       2.52367938      -0.28453743       2.75206040       0.00000000
Si       2.72399751       2.63353914      -0.03721402       0.00000000
