10
Lattice="16.28999089631971 0.0 0.0 0.0 16.28999089631971 0.0 0.0 0.0 34.33025523377368" Properties=species:S:1:pos:R:3:initial_magmoms:R:1 pbc="T T T"
Si      -1.34975519      -1.33965376       1.37396624       0.00000000
Si      -1.35234530       1.35715248      -1.35844896       0.00000000
Si       1.36062225      -1.35800933      -1.35910123       0.00000000
Si       1.36125756       1.37785707       1.39425543       0.00000000
Si       0.17837550      -2.56022111       2.72678504       0.00000000
Si      -2.71065844       2.71283886       0.00195683       0.00000000
Si       2.71259451       2.71391400       0.00236879       0.00000000
Si      -2.71233524      -0.00099369      -2.71466645       0.00000000
Si       0.00250866       2.71399545      -2.71490676       0.00000000
Si      -2.71618550      -2.71455650       0.00130455       0.00000000
