10
Lattice="16.28999089631971 0.0 0.0 0.0 16.28999089631971 0.0 0.0 0.0 34.33025523377368" Properties=species:S:1:pos:R:3:initial_magmoms:R:1 pbc="T T T"
Si       1.36181468      -1.35412254       1.36171033       0.00000000
Si      -1.35606194       1.36041561       1.36195065       0.00000000
Si       1.38203057       1.34371323      -1.36262695       0.00000000
Si      -1.35000871      -1.36404315      -1.39007401       0.00000000
Si       2.71362404      -2.71213839       0.00339870       0.00000000
Si      -2.71284279      -2.71337643       0.00243745       0.00000000
Si      -2.71382019       2.71576359       0.00171651       0.00000000
Si      -2.71220748       0.00143352       2.71943836       0.00000000
Si       0.00206394      -2.71321353       2.71930104       0.00000000
Si       0.00187661       2.71672795       2.71940403       0.00000000
