10
Lattice="16.290000149 0.0 0.0 0.0 16.290000149 0.0 0.0 0.0 29.1751946751" Properties=species:S:1:pos:R:3:initial_magmoms:R:1 pbc="T T T"
H        0.44484732       1.29762883      -0.63701120       0.00000000
Si      -0.80187526       0.99714349       1.94111323       0.00000000
Si      -1.87271471      -0.70016050      -1.27874878       0.00000000
Si       1.99721918      -1.37313298      -0.07109995       0.00000000
H        1.01300995      -0.22898853      -2.45853530       0.00000000
H       -0.65651959      -2.67426416      -1.05999317       0.00000000
Si       3.15869293       0.66718954      -0.62589545       0.00000000
Si      -2.30197250       2.30819528       0.64334222       0.00000000
Si       0.79071661      -2.95090095      -1.49607481       0.00000000
Si       2.06083163       0.91621477      -2.66608764       0.00000000
