10
Lattice="16.290000149 0.0 0.0 0.0 16.290000149 0.0 0.0 0.0 29.1751946751" Properties=species:S:1:pos:R:3:initial_magmoms:R:1 pbc="T T T"
Si       1.32797873      -1.36161595       1.37353899       0.00000000
Si      -1.37003625      -1.36920709      -1.32490394       0.00000000
Si      -1.36593117       1.35106003       1.34949863       0.00000000
Si       1.36795439       1.36495540      -1.34413039       0.00000000
Si      -2.69513003       0.01435149      -2.68493482       0.00000000
Si       0.00991735      -2.71733004      -2.66600011       0.00000000
Si       2.68449591       0.00531054       2.71037559       0.00000000
Si      -0.02373290       2.71189406       2.70331519       0.00000000
Si       2.72706168       0.00961110      -2.69832623       0.00000000
Si      -2.70180893       2.72676684      -0.00367607       0.00000000
