10
Lattice="16.290000149 0.0 0.0 0.0 16.290000149 0.0 0.0 0.0 29.1751946751" Properties=species:S:1:pos:R:3:initial_magmoms:R:1 pbc="T T T"
Si       0.43893405      -0.24843879       2.28347859       0.00000000
Si      -1.71914888       1.63014031       0.10357194       0.00000000
Si      -0.04942386      -2.29413701      -0.66744093       0.00000000
Si       1.87069475       0.89586856      -1.27565621       0.00000000
H       -0.92633086       0.16404030      -2.54754882       0.00000000
Si       2.15471090      -2.67569768       0.13744434       0.00000000
Si      -0.32461083       3.37018926      -0.80923237       0.00000000
Si       2.07202286      -1.98387767       2.36753496       0.00000000
Si       3.46411740       1.70888618       0.28594608       0.00000000
Si      -3.77655960       0.61792858      -0.61752217       0.00000000
