10
Lattice="16.290000149 0.0 0.0 0.0 16.290000149 0.0 0.0 0.0 29.1751946751" Properties=species:S:1:pos:R:3:initial_magmoms:R:1 pbc="T T T"
Si       1.35433432      -1.36511830       1.33919979       0.00000000
Si      -1.35651718      -1.36692649      -1.33683660       0.00000000
Si       1.37472940       1.33773481      -1.36099366       0.00000000
Si      -1.37943721       1.34464177       1.35597552       0.00000000
Si       2.64710873       0.07154568       2.65278375       0.00000000
Si       0.02806767      -2.72113375      -2.67119330       0.00000000
Si      -2.68449591      -0.00531054      -2.71037559       0.00000000
Si      -2.70822881       2.70658352      -0.00706040       0.00000000
Si      -2.70401459      -2.71923597       0.04049517       0.00000000
Si       0.03143970       2.72135855      -2.70392787       0.00000000
