10
Lattice="16.290000149 0.0 0.0 0.0 16.290000149 0.0 0.0 0.0 29.1751946751" Properties=species:S:1:pos:R:3:initial_magmoms:R:1 pbc="T T T"
Si       1.41890788      -1.33061608      -1.30223481       0.00000000
Si       1.37340991       1.32665761       1.36367777       0.00000000
Si      -1.35138583      -1.37556019       1.34696039       0.00000000
Si      -1.35166276       1.31887099      -1.40787819       0.00000000
Si       0.10678095      -2.69047271      -2.64788524       0.00000000
Si       0.00428427       2.70576902       2.68618935       0.00000000
Si       2.75356389       2.64443717       0.00023340       0.00000000
Si      -2.72135855      -0.01215234       2.68327183       0.00000000
Si      -2.71435385       2.69249267      -0.05811699       0.00000000
Si       0.01565469       2.66911652      -2.75817914       0.00000000
