10
Lattice="16.290000149 0.0 0.0 0.0 16.290000149 0.0 0.0 0.0 29.1751946751" Properties=species:S:1:pos:R:3:initial_magmoms:R:1 pbc="T T T"
Si       1.36523233       1.35549091       1.34661029       0.00000000
Si       1.36997272      -1.36340785      -1.33631144       0.00000000
Si      -1.34827444       1.36072000      -1.36548664       0.00000000
Si      -1.34837218      -1.34762284       1.37835290       0.00000000
Si      -0.00964368       2.71981100       2.67886638       0.00000000
Si       2.71570592      -0.02161683       2.68828996       0.00000000
Si       2.72135855       0.01215234      -2.68327183       0.00000000
Si      -2.69635340      -2.70933653       0.02777479       0.00000000
Si       0.02306664      -2.72029970      -2.69879303       0.00000000
Si      -2.70829397       0.00622278      -2.71915732       0.00000000
