10
Lattice="16.290000149 0.0 0.0 0.0 16.290000149 0.0 0.0 0.0 29.1751946751" Properties=species:S:1:pos:R:3:initial_magmoms:R:1 pbc="T T T"
Si      -1.47363088      -1.38587176       1.20753213       0.00000000
Si       1.33838641      -1.32911740      -1.41310055       0.00000000
Si      -1.34507183       1.35220033      -1.38774731       0.00000000
Si       1.41348331       1.39461949       1.30010503       0.00000000
Si       0.00364896      -2.60508053       2.52464630       0.00000000
Si      -0.11468160       2.65877237       2.51242189       0.00000000
Si       2.76016134       2.68315850      -0.07255871       0.00000000
Si      -2.80745121      -0.08628813       2.64245573       0.00000000
Si      -0.00873144       2.70244586      -2.75793115       0.00000000
Si      -2.72485745      -0.00825903      -2.74442304       0.00000000
