10
Lattice="16.290000149 0.0 0.0 0.0 16.290000149 0.0 0.0 0.0 29.1751946751" Properties=species:S:1:pos:R:3:initial_magmoms:R:1 pbc="T T T"
H       -0.59645836      -0.09466119      -1.40105120       0.00000000
Si      -1.71789455       0.44375589       1.52277011       0.00000000
Si       0.47741103      -2.03056481       1.05634627       0.00000000
Si       1.89765470       1.49838679       0.31754282       0.00000000
H        1.51420438      -0.85312360      -1.71115434       0.00000000
Si       0.79540813      -0.93072916      -3.03661261       0.00000000
Si      -2.56329668       2.29263833       0.40188831       0.00000000
Si      -0.33770799       1.47232279       3.15264236       0.00000000
Si       2.07083369      -1.21754719       2.61794857       0.00000000
Si       0.92308915       2.95723776       1.82207843       0.00000000
