10
Lattice="16.290000149 0.0 0.0 0.0 16.290000149 0.0 0.0 0.0 29.1751946751" Properties=species:S:1:pos:R:3:initial_magmoms:R:1 pbc="T T T"
Si       1.44664975      -1.19280268      -1.35542090       0.00000000
Si      -1.34521681      -1.46316781       1.23233134       0.00000000
Si      -1.35600079       1.24305733      -1.45730068       0.00000000
Si       1.42736239       1.35904213       1.27838147       0.00000000
Si      -2.70536177      -0.00456120       2.51938338       0.00000000
Si       0.08680941      -2.53744445      -2.69464986       0.00000000
Si       0.09738162       2.67302612       2.69791807       0.00000000
Si      -2.52785290       2.83367159      -0.17131645       0.00000000
Si       2.75625174      -0.03707604       2.64726410       0.00000000
Si       0.04069242      -2.80269453       2.60419276       0.00000000
