10
Lattice="16.290000149 0.0 0.0 0.0 16.290000149 0.0 0.0 0.0 29.1751946751" Properties=species:S:1:pos:R:3:initial_magmoms:R:1 pbc="T T T"
Si       0.80187526      -0.99714349      -1.94111323       0.00000000
Si      -1.32879160      -1.33211476       1.39830873       0.00000000
Si       1.59544261       1.12912507       1.33905391       0.00000000
Si      -1.50009724       1.31105179      -1.29777101       0.00000000
H        1.24672258       0.30048534      -2.57812443       0.00000000
H        0.69359563       1.86988025       2.31732736       0.00000000
Si      -2.53102619       2.79785640       0.17312561       0.00000000
Si      -2.52868043       0.14214654       2.82471317       0.00000000
Si      -1.07083945      -1.69730399      -3.21986201       0.00000000
Si      -2.89168680      -2.45557091      -0.07031222       0.00000000
