10
Lattice="16.290000149 0.0 0.0 0.0 16.290000149 0.0 0.0 0.0 29.1751946751" Properties=species:S:1:pos:R:3:initial_magmoms:R:1 pbc="T T T"
Si       1.41200418       1.39069360      -1.25634223       0.00000000
Si       1.36569171      -1.34799751       1.37202188       0.00000000
Si      -1.28145042       1.34521192       1.45645489       0.00000000
Si      -1.39073921      -1.28689372      -1.43487692       0.00000000
Si      -2.69384149      -2.64073934      -0.00070020       0.00000000
Si      -2.59830064       2.78036256       0.18053610       0.00000000
Si       0.13334180       2.76404161      -2.64368693       0.00000000
Si       2.74198495       0.07670961      -2.67587884       0.00000000
Si       2.71758253      -2.71720460       0.01333306       0.00000000
Si       2.71339600       2.71783177       0.16907025       0.00000000
