10
Lattice="16.290000149 0.0 0.0 0.0 16.290000149 0.0 0.0 0.0 29.1751946751" Properties=species:S:1:pos:R:3:initial_magmoms:R:1 pbc="T T T"
Si       1.35876520       1.36523233       1.33103073       0.00000000
Si       1.36544410      -1.34718301      -1.35022801       0.00000000
Si      -1.32918256       1.36676359      -1.37598971       0.00000000
Si      -1.35573526      -1.37751499       1.35635480       0.00000000
Si       2.69464295      -0.01047447       2.68420544       0.00000000
Si      -0.00317655      -2.69602760      -2.68817326       0.00000000
Si      -2.70775640       0.00288333      -2.68087946       0.00000000
Si      -2.71466336       2.68112225      -0.01788439       0.00000000
Si       0.01117494       2.71275743       2.69730510       0.00000000
Si       2.69711903       2.72246627      -0.04968536       0.00000000
