10
Lattice="16.290000149 0.0 0.0 0.0 16.290000149 0.0 0.0 0.0 29.1751946751" Properties=species:S:1:pos:R:3:initial_magmoms:R:1 pbc="T T T"
Si       1.35329176       1.39779604      -1.32032927       0.00000000
Si      -1.35189082       1.36920709       1.35868882       0.00000000
Si       1.37642356      -1.34724817       1.35953490       0.00000000
Si      -1.36226755      -1.36782244      -1.36340061       0.00000000
Si       2.73530279       0.04137660      -2.64485393       0.00000000
Si      -2.70815388      -2.69667920       0.01814697       0.00000000
Si       2.69034239       2.72253143       0.08457889       0.00000000
Si      -2.69863563       0.02166570       2.72738472       0.00000000
Si       0.02114442      -2.69117318       2.73543708       0.00000000
Si      -2.71758253       2.71720460      -0.01333306       0.00000000
