10
Lattice="16.290000149 0.0 0.0 0.0 16.290000149 0.0 0.0 0.0 29.1751946751" Properties=species:S:1:pos:R:3:initial_magmoms:R:1 pbc="T T T"
Si       1.24076044      -1.38952072       1.37245951       0.00000000
Si      -1.36181143       1.34754139       1.33301464       0.00000000
Si      -1.29277441      -1.43666398      -1.31358397       0.00000000
Si       1.45767808       1.29845962      -1.30246822       0.00000000
Si       2.68289786      -0.06134814       2.58197555       0.00000000
Si      -2.64710873      -0.07154568      -2.65278375       0.00000000
Si       0.09518247       2.62370000      -2.68484729       0.00000000
Si       0.03021795       2.69586470       2.62460051       0.00000000
Si      -2.60139899      -2.78259755       0.10990296       0.00000000
Si       0.13255173      -2.79832229      -2.61234693       0.00000000
