10
Lattice="16.290000149 0.0 0.0 0.0 16.290000149 0.0 0.0 0.0 29.1751946751" Properties=species:S:1:pos:R:3:initial_magmoms:R:1 pbc="T T T"
Si       1.30655575      -1.58329027       1.18034085       0.00000000
Si       1.30445434       1.29837817      -1.49881728       0.00000000
Si      -0.99636157       1.77393215       1.25753842       0.00000000
Si      -1.29269296      -1.66974131      -1.17403901       0.00000000
H        2.72909956      -1.07800705       0.47485547       0.00000000
H        0.25873407      -2.72849357       1.38789319       0.00000000
H       -3.04883643      -1.03413808       0.35587902       0.00000000
H       -2.48090186      -1.16439292      -1.97583171       0.00000000
H       -0.30942855      -1.20187621       3.20941729       0.00000000
H       -1.84508687       0.50824800      -3.08653137       0.00000000
