10
Lattice="16.290000149 0.0 0.0 0.0 16.290000149 0.0 0.0 0.0 29.1751946751" Properties=species:S:1:pos:R:3:initial_magmoms:R:1 pbc="T T T"
Si      -1.28774080      -1.25628481       1.48306267       0.00000000
Si      -1.44159985       1.36927225      -1.23119322       0.00000000
Si       1.17441127      -1.46210896      -1.39997172       0.00000000
Si       1.84181258       0.92708020       1.12875911       0.00000000
Si       3.43979643      -0.85320505       1.04242971       0.00000000
Si      -0.06395454       2.68837130      -2.59314965       0.00000000
Si       2.55375074      -0.12140937      -2.73488275       0.00000000
Si       2.55972917      -2.74207944      -0.02724963       0.00000000
Si      -2.79630885      -0.01513341      -2.58063349       0.00000000
Si       0.13198158      -2.59696811       2.80572012       0.00000000
