10
Lattice="16.290000149 0.0 0.0 0.0 16.290000149 0.0 0.0 0.0 29.1751946751" Properties=species:S:1:pos:R:3:initial_magmoms:R:1 pbc="T T T"
Si      -1.35590468       1.40693473      -1.31440087       0.00000000
Si       1.17379225       1.46766385       1.45005386       0.00000000
Si      -1.48698216      -1.19961190       1.43591556       0.00000000
Si       1.00690120      -1.23957127      -1.84381395       0.00000000
Si      -2.46645589      -0.30516057      -2.55633056       0.00000000
Si      -1.05050953      -2.25178301      -2.56490806       0.00000000
Si       2.40143924       0.50047767      -2.75661827       0.00000000
Si      -0.12781134      -2.53913861       2.81624361       0.00000000
Si       2.54783747       0.11662011       2.81135093       0.00000000
Si       2.47466279       2.95197609       0.17727023       0.00000000
