10
Lattice="16.290000149 0.0 0.0 0.0 16.290000149 0.0 0.0 0.0 29.1751946751" Properties=species:S:1:pos:R:3:initial_magmoms:R:1 pbc="T T T"
Si      -0.73560754       1.32628294      -1.78986902       0.00000000
Si       1.99409150      -0.88707359      -0.97567686       0.00000000
Si      -1.51627321      -1.84968228      -0.07022469       0.00000000
Si      -0.62605729       1.07044849       2.04707753       0.00000000
H        2.45711846       1.38908089       1.03379385       0.00000000
H        1.24527277      -0.77613380       2.76933865       0.00000000
Si      -2.49465062       2.29399040      -0.52775010       0.00000000
Si       0.80637130      -2.03508854      -2.66920939       0.00000000
Si      -0.62854966      -0.40757580      -3.59485079       0.00000000
Si       2.56852577      -2.62716977       0.54262945       0.00000000
