10
Lattice="16.290000149 0.0 0.0 0.0 16.290000149 0.0 0.0 0.0 29.1751946751" Properties=species:S:1:pos:R:3:initial_magmoms:R:1 pbc="T T T"
Si       1.35600079      -1.24305733       1.45730068       0.00000000
Si      -1.17185211       1.59061426       1.28598423       0.00000000
Si       1.31573191       1.42136767      -1.35253285       0.00000000
Si      -1.46223440      -1.38279295      -1.34582256       0.00000000
Si      -0.52592917       2.59777284      -2.28027487       0.00000000
Si       2.80265054      -2.43586001       0.10187978       0.00000000
Si      -1.45694015       3.41451435      -0.28539175       0.00000000
Si      -0.00202485      -2.60196914      -2.67781607       0.00000000
Si      -2.64995460       0.28228941       2.65808197       0.00000000
Si       0.01078398      -2.70622514       2.68963202       0.00000000
