10
Lattice="16.290000149 0.0 0.0 0.0 16.290000149 0.0 0.0 0.0 29.1751946751" Properties=species:S:1:pos:R:3:initial_magmoms:R:1 pbc="T T T"
H        1.31036761      -0.46165860       0.60804023       0.00000000
Si      -1.26700363       0.24524595       1.93533654       0.00000000
Si       0.27038142       2.02919645      -1.19880875       0.00000000
Si      -0.96738166      -1.99666532      -0.88076995       0.00000000
H        1.87830218      -0.59191345      -1.72367050       0.00000000
Si       3.06651108      -1.09726183      -0.92187780       0.00000000
H       -0.89122591      -2.81797455       1.69362005       0.00000000
Si      -1.92489158       2.75312406      -0.73209316       0.00000000
Si      -3.32926878      -0.44636229       1.02757953       0.00000000
H        1.07518888       0.16444755      -3.37875012       0.00000000
