10
Lattice="16.290000149 0.0 0.0 0.0 16.290000149 0.0 0.0 0.0 29.1751946751" Properties=species:S:1:pos:R:3:initial_magmoms:R:1 pbc="T T T"
Si      -1.35558865      -1.34048782       1.31553579       0.00000000
Si      -1.40626684       1.36358704      -1.25465591       0.00000000
Si       1.33740901      -1.15416280      -1.55721726       0.00000000
Si       1.42223104       1.45968175       1.22503433       0.00000000
Si       0.42617898       2.38576826      -2.19670252       0.00000000
Si       2.17220636       0.84328444      -2.64848595       0.00000000
Si       0.07762185      -2.66022218       2.59836910       0.00000000
Si      -2.69166188       0.10080252       2.60464176       0.00000000
Si      -2.66028734      -2.63554283      -0.16004345       0.00000000
Si       2.76511350      -2.52131735      -0.22277887       0.00000000
