10
Lattice="16.290000149 0.0 0.0 0.0 16.290000149 0.0 0.0 0.0 29.1751946751" Properties=species:S:1:pos:R:3:initial_magmoms:R:1 pbc="T T T"
Si      -1.61156971       0.17345592       1.67993688       0.00000000
Si       0.83509057       1.92895430      -1.01958553       0.00000000
Si       1.76767679      -1.15298992       1.03679889       0.00000000
Si      -1.56038653      -0.78003037      -1.59351996       0.00000000
H       -0.20991294       3.04380608      -1.00035908       0.00000000
Si      -2.04665933       2.46302685       1.37803197       0.00000000
Si       1.11334006       1.19277010      -3.22706828       0.00000000
Si       0.61742359      -2.79619482       2.21407635       0.00000000
Si      -2.47811627      -2.61426809      -0.42274857       0.00000000
Si      -0.41822946      -0.64902619      -3.65498086       0.00000000
