10
Lattice="16.290000149 0.0 0.0 0.0 16.290000149 0.0 0.0 0.0 29.1751946751" Properties=species:S:1:pos:R:3:initial_magmoms:R:1 pbc="T T T"
Si       1.34610787      -1.34490241       1.36554499       0.00000000
Si      -1.35405739       1.32913369       1.40125543       0.00000000
Si      -1.42223104      -1.45968175      -1.22503433       0.00000000
Si       1.46039851       1.43672621      -1.21494263       0.00000000
Si      -0.99605206       0.92608651      -3.42173685       0.00000000
Si       0.04331511       2.77975495      -2.46931262       0.00000000
Si      -2.82849789      -0.09609471      -2.47969024       0.00000000
Si       2.68962563      -2.64813500      -0.05858379       0.00000000
Si      -0.08482203      -2.61384455      -2.78225159       0.00000000
Si      -0.00943191      -2.71547786       2.71189270       0.00000000
