10
Lattice="16.290000149 0.0 0.0 0.0 16.290000149 0.0 0.0 0.0 29.1751946751" Properties=species:S:1:pos:R:3:initial_magmoms:R:1 pbc="T T T"
Si       1.28774080       1.25628481      -1.48306267       0.00000000
Si      -1.48859650       1.34959393       1.22349096       0.00000000
Si       1.41972238      -1.34068330       1.32265745       0.00000000
Si      -1.47038428      -1.39929472      -1.28160795       0.00000000
Si       2.47352249      -2.80862409      -0.15445348       0.00000000
Si      -2.79470102      -0.13465314       2.53205680       0.00000000
Si      -0.15385905       2.62555706      -2.71425589       0.00000000
Si       2.46215207      -0.20582415      -2.88303439       0.00000000
Si       0.10345779      -2.69418683       2.71139672       0.00000000
Si       3.12955338       2.18336501      -0.35430356       0.00000000
