10
Lattice="16.290000149 0.0 0.0 0.0 16.290000149 0.0 0.0 0.0 29.1751946751" Properties=species:S:1:pos:R:3:initial_magmoms:R:1 pbc="T T T"
Si      -0.64308034       0.84196495      -1.07965725       0.00000000
Si       2.14764104       0.25699104       1.31049139       0.00000000
Si       2.25469892      -1.47686770      -0.49449037       0.00000000
Si       0.38859795       1.22469850       2.57261032       0.00000000
Si      -2.07366815       2.06791778       0.20650203       0.00000000
Si       0.41897880      -2.66259238      -1.49928408       0.00000000
Si      -2.08521776      -0.48620763      -2.28917330       0.00000000
Si      -0.68944168      -2.30800469       2.13892105       0.00000000
Si      -1.37774305      -0.25899471       2.90582021       0.00000000
Si       0.85776625       2.20494926      -2.23975052       0.00000000
