10
Lattice="16.290000149 0.0 0.0 0.0 16.290000149 0.0 0.0 0.0 29.1751946751" Properties=species:S:1:pos:R:3:initial_magmoms:R:1 pbc="T T T"
Si      -1.34798122      -1.36171369      -1.35057811       0.00000000
Si       1.34328970      -1.38362374       1.34293421       0.00000000
Si      -1.38882025       1.35076681       1.33333557       0.00000000
Si       1.34837218       1.34762284      -1.37835290       0.00000000
Si       2.71085150      -0.02611287       2.67186433       0.00000000
Si      -0.03725523       2.73714357       2.65549704       0.00000000
Si      -2.69102169      -0.00363267      -2.71405166       0.00000000
Si       2.71360451       2.70311375      -0.03174261       0.00000000
Si       0.01112607      -2.71705799      -2.70477395       0.00000000
Si      -0.03143970      -2.72135855       2.70392787       0.00000000
