10
Lattice="16.290000149 0.0 0.0 0.0 16.290000149 0.0 0.0 0.0 29.1751946751" Properties=species:S:1:pos:R:3:initial_magmoms:R:1 pbc="T T T"
Si       1.36381510       1.36161595      -1.32957197       0.00000000
Si      -1.35006634       1.36506943       1.35565460       0.00000000
Si       1.38381922      -1.33807690       1.35011131       0.00000000
Si      -1.33481890      -1.35135325      -1.39419503       0.00000000
Si       2.69988833      -0.07967439      -2.61867795       0.00000000
Si      -2.69009804      -2.69527826      -0.01829285       0.00000000
Si      -0.02090007       2.71842635      -2.66915104       0.00000000
Si       0.02340873      -2.70050735       2.69380407       0.00000000
Si      -2.71865441       0.02129103       2.69838458       0.00000000
Si       0.01642032       2.72732069       2.70792487       0.00000000
