10
Lattice="16.290000149 0.0 0.0 0.0 16.290000149 0.0 0.0 0.0 29.1751946751" Properties=species:S:1:pos:R:3:initial_magmoms:R:1 pbc="T T T"
Si      -1.20027979      -0.36279459      -0.88785952       0.00000000
H        1.40465413      -2.02097000       0.44734326       0.00000000
Si      -0.32242797       1.12752865      -2.50757881       0.00000000
Si       0.05830191       2.93852055      -1.01786419       0.00000000
Si      -1.96448605      -2.48075525       0.28556681       0.00000000
Si      -1.44557461      -1.56708172       2.37736991       0.00000000
Si       2.00637416       1.18517896       2.18565971       0.00000000
Si       0.61183612      -0.55486999       3.09846402       0.00000000
Si      -0.65088325      -2.73673631      -1.62966802       0.00000000
H        3.12781035       0.64676188      -0.73816160       0.00000000
