10
Lattice="16.290000149 0.0 0.0 0.0 16.290000149 0.0 0.0 0.0 29.1751946751" Properties=species:S:1:pos:R:3:initial_magmoms:R:1 pbc="T T T"
Si       1.27866238      -1.37334801       1.38734469       0.00000000
Si      -1.34657214      -1.21270255      -1.48188983       0.00000000
Si      -1.43233547       1.30674797       1.35229653       0.00000000
Si       1.33611722       1.40469974      -1.35454127       0.00000000
Si      -1.63166017       0.61119755      -3.05326581       0.00000000
Si      -0.29870973       2.58839632      -2.56554408       0.00000000
Si       2.60864316      -2.68733200      -0.03219191       0.00000000
Si      -2.82467462      -2.52102739      -0.10979209       0.00000000
Si      -0.07014800       2.70211681       2.67032388       0.00000000
Si       2.58005421      -0.04620984       2.81275718       0.00000000
