10
Lattice="16.290000149 0.0 0.0 0.0 16.290000149 0.0 0.0 0.0 29.1751946751" Properties=species:S:1:pos:R:3:initial_magmoms:R:1 pbc="T T T"
Si      -0.72984088       2.19007812       0.40153820       0.00000000
Si       1.90065206       0.54763560       1.28595506       0.00000000
Si      -1.61779249      -1.48742199       0.93850766       0.00000000
Si       0.73282195       0.34443902      -2.26209872       0.00000000
H        1.45358929      -2.17059202      -1.26830406       0.00000000
H        1.72180415       1.93512333       1.89662106       0.00000000
Si       2.54308079       1.67042711      -1.65680096       0.00000000
Si       1.20997234       3.21708118      -0.49936263       0.00000000
H       -0.43289046      -2.60279830      -2.50399026       0.00000000
Si      -0.40226526      -2.90305559       2.38790128       0.00000000
