10
Lattice="16.290000149 0.0 0.0 0.0 16.290000149 0.0 0.0 0.0 29.1751946751" Properties=species:S:1:pos:R:3:initial_magmoms:R:1 pbc="T T T"
Si       1.33959187      -1.35534430      -1.34605508       0.00000000
Si       1.30435660       1.18408753       1.55357707       0.00000000
Si      -1.32079321      -1.40304142       1.34386286       0.00000000
Si      -1.21552723       1.41563359      -1.44939362       0.00000000
Si      -0.16591365      -2.63749763      -2.63373147       0.00000000
Si       0.40226526       2.90305559      -2.38790128       0.00000000
Si      -2.70280424      -0.04662198       2.66838752       0.00000000
Si      -2.69715161       2.71416994      -0.11004796       0.00000000
Si      -2.73367380      -2.69948108       0.00084871       0.00000000
Si      -0.01602936       2.67305895       2.76223829       0.00000000
