10
Lattice="16.290000149 0.0 0.0 0.0 16.290000149 0.0 0.0 0.0 29.1751946751" Properties=species:S:1:pos:R:3:initial_magmoms:R:1 pbc="T T T"
Si      -1.22844520       1.85222189       0.66615722       0.00000000
Si      -1.53341029      -0.71998543      -1.61163775       0.00000000
Si       1.61907940       0.67425940      -1.56390714       0.00000000
Si       0.07496658      -1.46059399       1.93180634       0.00000000
H        0.33791976      -2.56656772      -0.88937663       0.00000000
H        0.06977007       2.40422483       1.58368792       0.00000000
H        1.54976545      -0.40135302      -2.62492144       0.00000000
Si      -2.75185344      -2.04059945      -0.11492109       0.00000000
H       -0.28483065       3.08289882      -2.01510152       0.00000000
Si       2.32080374      -1.96605641       2.20821213       0.00000000
