10
Lattice="16.290000149 0.0 0.0 0.0 16.290000149 0.0 0.0 0.0 29.1751946751" Properties=species:S:1:pos:R:3:initial_magmoms:R:1 pbc="T T T"
Si      -1.37857384      -1.36388026      -1.30488976       0.00000000
Si      -1.38548080       1.31435866       1.35810531       0.00000000
Si       1.32918256      -1.36676359       1.37598971       0.00000000
Si       1.32471910       1.38686545      -1.38305010       0.00000000
Si      -2.69566922       0.02753010      -2.64671531       0.00000000
Si      -0.01422117       2.67586058       2.68452636       0.00000000
Si      -0.05134608      -2.72284094      -2.67107660       0.00000000
Si       2.68794776      -0.00153126       2.70702044       0.00000000
Si       2.74981719       0.02652012      -2.65316303       0.00000000
Si       2.69462666      -2.71394660       0.02576170       0.00000000
