10
Lattice="16.290000149 0.0 0.0 0.0 16.290000149 0.0 0.0 0.0 29.1751946751" Properties=species:S:1:pos:R:3:initial_magmoms:R:1 pbc="T T T"
Si       1.30087054       1.48431223      -1.27278362       0.00000000
Si       1.37404522      -1.35104374       1.36129708       0.00000000
Si      -1.38381922       1.37155285       1.35168385       0.00000000
Si      -1.17379225      -1.46766385      -1.45005386       0.00000000
Si       2.60783354       0.06138072      -2.57679987       0.00000000
Si      -2.52969693      -0.06072912      -2.76445473       0.00000000
Si      -2.66077442      -2.66727575      -0.01413830       0.00000000
Si       0.01844028      -2.66561417       2.76077282       0.00000000
Si       2.71756298       0.01850544       2.72485815       0.00000000
Si      -0.02155167       2.73937530       2.71508446       0.00000000
