10
Lattice="16.290000149 0.0 0.0 0.0 16.290000149 0.0 0.0 0.0 29.1751946751" Properties=species:S:1:pos:R:3:initial_magmoms:R:1 pbc="T T T"
Si      -1.40374189       1.17089263      -1.45972252       0.00000000
Si      -1.45964917      -1.17792991       1.41686707       0.00000000
Si       1.45956121      -1.28114335      -1.34582256       0.00000000
Si       1.21952968       1.49066533       1.39845461       0.00000000
H       -2.30558888       1.91164781      -0.48144906       0.00000000
Si       2.65155590       0.41638869      -2.52852660       0.00000000
Si      -0.07174116      -2.53801460       2.77348153       0.00000000
Si      -2.85529494      -2.49992858       0.05251535       0.00000000
Si       2.60543891       0.15113862       2.77031602       0.00000000
Si      -0.25348869       2.81409753      -2.63699997       0.00000000
