10
Lattice="16.290000149 0.0 0.0 0.0 16.290000149 0.0 0.0 0.0 29.1751946751" Properties=species:S:1:pos:R:3:initial_magmoms:R:1 pbc="T T T"
Si      -1.37378458       1.35865117       1.32032344       0.00000000
Si      -1.37441989      -1.36392913      -1.33135166       0.00000000
Si       1.35312886       1.37497375      -1.34340101       0.00000000
Si       1.35959599      -1.32538699       1.39165679       0.00000000
Si      -0.01470987       2.66732462       2.70850837       0.00000000
Si       2.68302818      -2.69602760       0.01791357       0.00000000
Si      -0.01378134      -2.71529867      -2.68435131       0.00000000
Si      -2.71353935       0.02555901       2.69456263       0.00000000
Si       2.70071912       0.02744865      -2.70967538       0.00000000
Si      -2.72640845       2.69260670      -0.06088863       0.00000000
