10
Lattice="16.290000149 0.0 0.0 0.0 16.290000149 0.0 0.0 0.0 29.1751946751" Properties=species:S:1:pos:R:3:initial_magmoms:R:1 pbc="T T T"
Si      -1.31685022       1.43515064      -1.27591879       0.00000000
Si       1.31406137       1.38406846       1.36370695       0.00000000
Si      -1.39846312      -1.33463971       1.33470681       0.00000000
Si       1.28145042      -1.34521192      -1.45645489       0.00000000
Si      -2.64161819       0.09890995      -2.61351394       0.00000000
Si       2.64714213      -2.69320943      -0.08443301       0.00000000
Si      -0.03000869      -2.69133608       2.67551123       0.00000000
Si       2.65996236       0.02293632       2.71886557       0.00000000
Si       2.69345460       0.04548168      -2.71279713       0.00000000
Si       2.63863875       2.76773619       0.00192556       0.00000000
