10
Lattice="16.290000149 0.0 0.0 0.0 16.290000149 0.0 0.0 0.0 29.1751946751" Properties=species:S:1:pos:R:3:initial_magmoms:R:1 pbc="T T T"
Si      -1.41379282      -1.32680422       1.23872042       0.00000000
Si       1.36155079      -1.37015191      -1.26188552       0.00000000
Si       1.22955292       1.13801941       1.62529174       0.00000000
Si      -1.39603672       1.44981001      -1.19297371       0.00000000
Si      -0.36940833       1.06407910       3.41793241       0.00000000
Si       2.69956253       0.07708428      -2.51735250       0.00000000
Si      -2.49502529       0.09545940       2.73564130       0.00000000
Si      -0.05644485      -2.67991679      -2.57751175       0.00000000
Si       2.52740981       2.72767907       0.35045244       0.00000000
Si      -0.11855862      -2.62052345       2.66585424       0.00000000
