10
Lattice="16.290000149 0.0 0.0 0.0 16.290000149 0.0 0.0 0.0 29.1751946751" Properties=species:S:1:pos:R:3:initial_magmoms:R:1 pbc="T T T"
Si       0.61667425      -1.30409759       0.43929091       0.00000000
Si      -1.51020682       1.47665593       0.62682906       0.00000000
H        2.01525221       0.35380251      -1.41193355       0.00000000
Si       1.11081511       1.25234263      -2.22317901       0.00000000
Si      -0.03049488       2.68136660      -0.75858424       0.00000000
Si      -2.82762719      -0.22478571      -0.50866952       0.00000000
Si      -1.61020135      -1.51059615      -2.11490986       0.00000000
Si      -0.22415040       1.63108513       2.65231695       0.00000000
Si      -0.22960755      -2.96183154      -0.95948463       0.00000000
Si       2.92446228      -1.21507111       0.07909395       0.00000000
