10
Lattice="16.290000149 0.0 0.0 0.0 16.290000149 0.0 0.0 0.0 29.1751946751" Properties=species:S:1:pos:R:3:initial_magmoms:R:1 pbc="T T T"
Si       1.35500221      -1.35425287       1.30766140       0.00000000
Si      -1.30973230      -1.42869817      -1.32216147       0.00000000
Si       1.37298637       1.25581240      -1.43040144       0.00000000
Si      -1.19687518       1.40339980       1.47209280       0.00000000
Si      -2.56693261       2.64565892       0.03080901       0.00000000
Si      -2.63852390      -0.06675642      -2.68519739       0.00000000
Si       2.73566118       2.59687037      -0.12933364       0.00000000
Si       2.74703160      -0.00592956       2.59924727       0.00000000
Si      -2.56740013      -0.01094688       2.78774820       0.00000000
Si       0.00700470      -2.65968461       2.70127292       0.00000000
