10
Lattice="16.290000149 0.0 0.0 0.0 16.290000149 0.0 0.0 0.0 29.1751946751" Properties=species:S:1:pos:R:3:initial_magmoms:R:1 pbc="T T T"
Si       1.37003625       1.36920709       1.32490394       0.00000000
Si      -1.32509377       1.38355858      -1.36003088       0.00000000
Si       1.37995361      -1.34812295      -1.34109617       0.00000000
Si      -1.35163018      -1.35119850       1.37353899       0.00000000
Si      -2.68340285      -2.70614369      -0.00980287       0.00000000
Si      -2.69371442       0.03471399      -2.69797613       0.00000000
Si       0.00410508       2.72026712       2.67440257       0.00000000
Si       2.69801498       0.00759114       2.69844293       0.00000000
Si       2.70453098       0.03554478      -2.70287756       0.00000000
Si      -2.69053787       2.73074160      -0.00980287       0.00000000
