10
Lattice="10.86 0.0 0.0 0.0 10.86 0.0 0.0 0.0 10.86" Properties=species:S:1:pos:R:3:initial_magmoms:R:1 pbc="T T T"
Si       1.35750000       1.35750000       1.35750000       0.00000000
Si      -1.35750000       1.35750000      -1.35750000       0.00000000
Si      -1.35750000      -1.35750000       1.35750000       0.00000000
Si       1.35750000      -1.35750000      -1.35750000       0.00000000
Si      -2.46486162       2.62065918      -0.07447788       0.00000000
Si      -2.45330658      -2.70920076      -0.25141986       0.00000000
Si       2.59892832      -2.66482680      -0.11323722       0.00000000
Si       0.10541802      -2.56213464      -2.74255182       0.00000000
Si       2.66380596       2.70234810       0.12997248       0.00000000
Si       0.05945850       2.78422164      -2.63502696       0.00000000
