10
Lattice="10.86 0.0 0.0 0.0 10.86 0.0 0.0 0.0 10.86" Properties=species:S:1:pos:R:3:initial_magmoms:R:1 pbc="T T T"
Si      -1.30630596      -1.34484810       1.22752752       0.00000000
Si       1.40869404       1.37015190       1.22752752       0.00000000
Si       1.40869404      -1.34484810      -1.48747248       0.00000000
Si       0.10590672       2.39839842       2.64300906       0.00000000
Si       0.05119404      -2.70234810       2.58502752       0.00000000
Si       2.76619404       0.01265190       2.58502752       0.00000000
Si      -0.04005168       2.47420122      -2.86721376       0.00000000
Si      -2.66380596      -2.70234810      -0.12997248       0.00000000
Si      -2.60434746       0.08187354      -2.76499944       0.00000000
Si      -2.80647378       0.34546746       2.58729726       0.00000000
