10
Lattice="10.86 0.0 0.0 0.0 10.86 0.0 0.0 0.0 10.86" Properties=species:S:1:pos:R:3:initial_magmoms:R:1 pbc="T T T"
Si       1.25208198       1.20463464       1.38505182       0.00000000
Si      -1.06714704      -1.57557966       1.15434198       0.00000000
Si      -1.46291802       1.20463464      -1.32994818       0.00000000
Si       1.25208198      -1.51036536      -1.32994818       0.00000000
Si      -2.55872460      -0.14706612       2.49113196       0.00000000
Si       2.49351030      -0.10269216       2.62931460       0.00000000
Si       2.60958198       2.56213464       0.02755182       0.00000000
Si      -0.10541802       2.56213464      -2.68744818       0.00000000
Si       2.60958198      -0.15286536      -2.68744818       0.00000000
Si      -0.10541802       2.56213464       2.74255182       0.00000000
