10
Lattice="16.28999089631971 0.0 0.0 0.0 16.28999089631971 0.0 0.0 0.0 34.69518985606464" Properties=species:S:1:pos:R:3:initial_magmoms:R:1 pbc="T T T"
Si       1.43806980      -1.00348029      -1.63383210       0.00000000
Si       1.11920934       2.14339000       0.02310701       0.00000000
Si       0.23563974      -1.34024346       2.01010164       0.00000000
Si      -2.20866566       0.68144328      -0.76395381       0.00000000
Si       3.47972808       0.00475668      -0.96195937       0.00000000
Si      -1.68336203       2.56072025      -2.12018954       0.00000000
Si      -1.48064927      -3.05038395       1.76848421       0.00000000
Si       0.56050306      -0.53934561      -3.82820000       0.00000000
Si       2.88732594       2.16392029      -1.50806197       0.00000000
Si      -0.20800538       0.20264760       3.93349996       0.00000000
