10
Lattice="16.28999089631971 0.0 0.0 0.0 16.28999089631971 0.0 0.0 0.0 34.69518985606464" Properties=species:S:1:pos:R:3:initial_magmoms:R:1 pbc="T T T"
Si      -2.18027966       0.61652763       0.26899196       0.00000000
Si       0.88314606      -1.04847327       1.92249624       0.00000000
Si       0.05523939      -1.95571224      -1.36372989       0.00000000
Si       0.85191813       2.11914981      -0.75874953       0.00000000
Si       1.43076699      -2.86181091       0.47483863       0.00000000
Si      -2.64589022       1.48263435      -1.86774720       0.00000000
Si      -2.10094411       2.31414111       1.94893399       0.00000000
Si       0.10686240      -0.98784189      -3.58991330       0.00000000
Si      -3.41590616      -1.25595900       1.01820031       0.00000000
Si      -1.02130155       3.23549929      -1.69146084       0.00000000
