10
Lattice="16.28999089631971 0.0 0.0 0.0 16.28999089631971 0.0 0.0 0.0 34.69518985606464" Properties=species:S:1:pos:R:3:initial_magmoms:R:1 pbc="T T T"
Si      -0.96897874       1.62562797       1.40040273       0.00000000
Si       0.32997024       1.19839014      -2.01714477       0.00000000
Si       1.69494844      -0.97834482       1.38930026       0.00000000
Si      -1.06349332      -2.14508349      -0.48712074       0.00000000
Si      -1.85626246       2.08038680      -1.80404680       0.00000000
Si      -2.40477934       0.34896438       2.79841639       0.00000000
Si       0.25063468      -0.49922334      -3.69708680       0.00000000
Si       0.45114992      -2.38951494       2.85063962       0.00000000
Si       2.37326404      -2.90408346       0.00891667       0.00000000
Si      -0.98499181      -2.37170997      -2.94787845       0.00000000
