10
Lattice="16.28999089631971 0.0 0.0 0.0 16.28999089631971 0.0 0.0 0.0 34.69518985606464" Properties=species:S:1:pos:R:3:initial_magmoms:R:1 pbc="T T T"
Si       1.34833959       1.33189058       1.36428502       0.00000000
Si      -1.36034532       1.34935346      -1.35797049       0.00000000
Si       1.35757602      -1.36239627      -1.35797049       0.00000000
Si      -1.36508571      -1.37334315       1.37864883       0.00000000
Si       2.33484570      -0.34772475       2.73040888       0.00000000
Si      -2.71111212       2.70998060       0.00346952       0.00000000
Si       0.00043983       2.71066478      -2.71500421       0.00000000
Si       2.71298547       2.71656176       0.00409403       0.00000000
Si      -2.71464705      -0.00439485      -2.71507360       0.00000000
Si       2.71523349      -0.00450055      -2.71535116       0.00000000
