10
Lattice="16.28999089631971 0.0 0.0 0.0 16.28999089631971 0.0 0.0 0.0 34.69518985606464" Properties=species:S:1:pos:R:3:initial_magmoms:R:1 pbc="T T T"
Si      -0.88156593      -1.91206223      -1.21363842       0.00000000
Si       1.88786439       0.83926080      -1.33246951       0.00000000
Si       0.56114163      -0.58422782       2.39743896       0.00000000
Si      -2.09126459       1.61314983      -0.00041634       0.00000000
Si       0.45045108       2.18074230      -2.72593320       0.00000000
Si      -2.25029246      -0.58223881      -2.75379345       0.00000000
Si       1.16478387      -2.87822213       2.07557150       0.00000000
Si       3.50920809       1.19881368       0.61913601       0.00000000
Si      -1.00781343       3.45932811      -1.15732809       0.00000000
Si       2.52110556       0.68154102       2.91956716       0.00000000
