10
Lattice="16.28999089631971 0.0 0.0 0.0 16.28999089631971 0.0 0.0 0.0 34.69518985606464" Properties=species:S:1:pos:R:3:initial_magmoms:R:1 pbc="T T T"
Si       2.19411639      -0.44253414       0.76735394       0.00000000
Si      -0.79187319      -1.48309861      -1.71765572       0.00000000
Si      -1.70333127      -0.14112027       1.73025009       0.00000000
Si       0.11875410       2.11230801      -1.21998764       0.00000000
Si      -2.01334626       2.04033879      -2.23631441       0.00000000
Si       1.12831056      -1.87563874      -3.07451597       0.00000000
Si       3.15312498       1.66221531       1.27688779       0.00000000
Si      -2.52473823      -0.26125902      -2.82318387       0.00000000
Si       2.22065280      -2.21207937       2.38068117       0.00000000
Si      -3.74828013       0.87838938       1.02236373       0.00000000
