10
Lattice="16.28999089631971 0.0 0.0 0.0 16.28999089631971 0.0 0.0 0.0 34.69518985606464" Properties=species:S:1:pos:R:3:initial_magmoms:R:1 pbc="T T T"
Si       1.35601218      -1.35902583       1.35658268       0.00000000
Si      -1.35765747       1.35682668       1.35724189       0.00000000
Si       1.37002158       1.34778573      -1.35653064       0.00000000
Si      -1.37987703      -1.34900748      -1.35033407       0.00000000
Si      -0.17914113       2.49815295      -2.65377410       0.00000000
Si       2.54860308      -0.10759545      -2.83917489       0.00000000
Si      -2.71136461      -2.71440270      -0.00340013       0.00000000
Si      -2.71420396      -0.00039096       2.71437970       0.00000000
Si       0.00027693       2.71454931       2.71479604       0.00000000
Si       2.71516833      -0.00001629       2.71434500       0.00000000
