10
Lattice="16.28999089631971 0.0 0.0 0.0 16.28999089631971 0.0 0.0 0.0 34.69518985606464" Properties=species:S:1:pos:R:3:initial_magmoms:R:1 pbc="T T T"
Si      -0.60012360       2.13259558       0.84840195       0.00000000
Si      -2.12568862      -1.07504943      -0.16497572       0.00000000
Si       0.93258621      -0.64600764       2.11866295       0.00000000
Si       1.37380086       0.16287068      -2.28544282       0.00000000
Si      -2.01584515       1.05136312       2.53347887       0.00000000
Si      -1.39423666      -3.34927354      -0.20147508       0.00000000
Si      -3.13268822       0.12487099      -1.94820539       0.00000000
Si       1.40967144       2.99783893       1.73371961       0.00000000
Si      -0.83553039      -0.66653793       3.64983193       0.00000000
Si       2.25790803       1.11494299       2.86460995       0.00000000
