10
Lattice="16.28999089631971 0.0 0.0 0.0 16.28999089631971 0.0 0.0 0.0 34.69518985606464" Properties=species:S:1:pos:R:3:initial_magmoms:R:1 pbc="T T T"
Si      -1.35633798      -1.35596331       1.35810927       0.00000000
Si      -1.35601218       1.35902583      -1.35658268       0.00000000
Si       1.35915615       1.35900954       1.35776232       0.00000000
Si       1.36425492      -1.35821133      -1.36105836       0.00000000
Si       0.01400940       2.70681156      -2.71311332       0.00000000
Si      -2.71179630       0.00148239       2.71517769       0.00000000
Si       2.71513575       2.71393029       0.00027756       0.00000000
Si       0.00138465      -2.71350675       2.71562872       0.00000000
Si      -2.71366965       2.71585251       0.00065921       0.00000000
Si      -2.71513575      -2.71448415       0.00117964       0.00000000
