10
Lattice="16.28999089631971 0.0 0.0 0.0 16.28999089631971 0.0 0.0 0.0 34.69518985606464" Properties=species:S:1:pos:R:3:initial_magmoms:R:1 pbc="T T T"
Si       1.35597960       1.35492075      -1.35748476       0.00000000
Si      -1.35700587       1.35705474       1.35613164       0.00000000
Si       1.35764118      -1.35798327       1.35810927       0.00000000
Si      -1.35915615      -1.35900954      -1.35776232       0.00000000
Si      -0.00052128       2.71127502       2.71087548       0.00000000
Si      -2.71492398       0.00268785       2.71306128       0.00000000
Si       2.71261080      -0.00330687       2.71562872       0.00000000
Si      -2.71489140       2.71456560       0.00045104       0.00000000
Si       2.71498914       2.71450044       0.00010409       0.00000000
Si      -2.71516833       0.00001629      -2.71434500       0.00000000
