10
Lattice="16.28999089631971 0.0 0.0 0.0 16.28999089631971 0.0 0.0 0.0 34.69518985606464" Properties=species:S:1:pos:R:3:initial_magmoms:R:1 pbc="T T T"
Si       1.34366436       1.35418770      -1.38416537       0.00000000
Si      -1.36637262      -1.36998900      -1.37136284       0.00000000
Si      -1.43998713       1.19503440       1.49185930       0.00000000
Si       1.88579556      -0.82883520       1.26235049       0.00000000
Si      -2.24409411      -0.57928869       2.77846175       0.00000000
Si       2.70594819       2.68284897      -0.01183107       0.00000000
Si      -2.71950147       2.67401979      -0.01568223       0.00000000
Si       2.70598077      -2.71503801      -0.01595980       0.00000000
Si      -2.72530071      -2.71047681       0.01252497       0.00000000
Si      -0.00669519       2.70138699      -2.73998476       0.00000000
