10
Lattice="16.28999089631971 0.0 0.0 0.0 16.28999089631971 0.0 0.0 0.0 34.69518985606464" Properties=species:S:1:pos:R:3:initial_magmoms:R:1 pbc="T T T"
Si      -1.35136953      -1.34122086      -1.37771206       0.00000000
Si       1.36508571       1.37334315      -1.37864883       0.00000000
Si       1.00310562      -1.74345354       1.29708040       0.00000000
Si      -1.32784677       1.36313091       1.52416054       0.00000000
Si       2.12411826      -0.45313893       2.95738494       0.00000000
Si      -2.69657329       2.69295433      -0.01599449       0.00000000
Si       2.71342530       2.70523373      -0.01436382       0.00000000
Si      -2.71346114      -2.71782360      -0.00267153       0.00000000
Si       0.00720018      -2.70391194      -2.73550908       0.00000000
Si      -2.71114144       0.00845451      -2.73752140       0.00000000
