10
Lattice="16.28999089631971 0.0 0.0 0.0 16.28999089631971 0.0 0.0 0.0 34.69518985606464" Properties=species:S:1:pos:R:3:initial_magmoms:R:1 pbc="T T T"
Si      -0.88314606       1.04847327      -1.92249624       0.00000000
Si      -0.94079637      -0.73985922       2.05249919       0.00000000
Si       0.54762093      -1.81333764      -1.44765761       0.00000000
Si       2.14399206       1.03514805       0.54232082       0.00000000
Si      -2.10417930      -2.53516383       0.62177284       0.00000000
Si      -0.82790667      -0.90723897      -3.28622613       0.00000000
Si       3.19404546       0.37439307      -1.59969201       0.00000000
Si      -0.05429457      -3.61704789      -0.06900877       0.00000000
Si      -3.06342572       1.66500090      -1.65350428       0.00000000
Si       2.83558401      -1.95743898      -1.92117782       0.00000000
