10
Lattice="16.28999089631971 0.0 0.0 0.0 16.28999089631971 0.0 0.0 0.0 34.69518985606464" Properties=species:S:1:pos:R:3:initial_magmoms:R:1 pbc="T T T"
Si      -1.94999445       1.11452922       0.58940221       0.00000000
Si      -0.42186213      -2.19120048       0.87088445       0.00000000
Si       2.20525875       0.62038836      -1.08079046       0.00000000
Si       0.08509896       1.24908462      -2.49427329       0.00000000
Si       0.13791114       0.92768292       2.80365047       0.00000000
Si      -0.05444118      -3.12937416      -1.26672209       0.00000000
Si       3.05476596      -1.16444178       1.34187191       0.00000000
Si      -2.63140515       1.73895750      -1.73576662       0.00000000
Si      -1.56467079      -1.18008018      -3.25253709       0.00000000
Si      -2.48394807      -1.99326069       2.08185134       0.00000000
