10
Lattice="16.28999089631971 0.0 0.0 0.0 16.28999089631971 0.0 0.0 0.0 34.69518985606464" Properties=species:S:1:pos:R:3:initial_magmoms:R:1 pbc="T T T"
Si       0.79830774      -2.22795072      -0.05627563       0.00000000
Si      -1.79097147      -0.03078810       1.65173483       0.00000000
Si      -0.57062241       0.80800029      -2.27028102       0.00000000
Si       1.98145044       1.28418957       0.79226510       0.00000000
Si       2.51323749      -1.63895319      -1.61936420       0.00000000
Si       0.74549556       2.99019240       1.75984510       0.00000000
Si      -1.21707477       2.04563304       2.67867833       0.00000000
Si       1.44106227       1.92938760      -3.12617713       0.00000000
Si       3.06664137       0.00845451       2.51276583       0.00000000
Si      -3.92307183      -0.10275732       0.63540806       0.00000000
