10
Lattice="16.28999089631971 0.0 0.0 0.0 16.28999089631971 0.0 0.0 0.0 34.69518985606464" Properties=species:S:1:pos:R:3:initial_magmoms:R:1 pbc="T T T"
Si       1.23595488      -1.70600283      -0.96758000       0.00000000
Si      -1.19544165       1.66127049      -1.16929794       0.00000000
Si      -1.96257033      -0.94455936       0.91883323       0.00000000
Si       1.02822480       1.20418938       1.77295989       0.00000000
Si      -2.96051202       1.16807445       0.41158927       0.00000000
Si       2.99276622      -0.19536597      -1.70190410       0.00000000
Si      -1.03089636      -1.69886781       2.90506457       0.00000000
Si      -0.74549556      -2.99019240      -1.75984510       0.00000000
Si       0.17471025       0.17617635       3.69611534       0.00000000
Si      -0.02875185       3.67499142      -0.76683351       0.00000000
