10
Lattice="16.28999089631971 0.0 0.0 0.0 16.28999089631971 0.0 0.0 0.0 34.69518985606464" Properties=species:S:1:pos:R:3:initial_magmoms:R:1 pbc="T T T"
Si      -2.11315509       1.01727792      -0.22437392       0.00000000
Si       1.18685682       0.56886309       1.97568400       0.00000000
Si       1.38548079       0.96192450      -1.77219659       0.00000000
Si      -0.75787596      -2.34585774       0.02307231       0.00000000
Si      -2.94291882       0.19191249      -2.35119024       0.00000000
Si       3.30854787       1.49600844       1.27043448       0.00000000
Si      -3.52799046       0.20740428       1.52405646       0.00000000
Si       1.53932355      -1.48041891       3.20719045       0.00000000
Si       0.44657406       2.64324798       2.77721272       0.00000000
Si      -1.83827763       3.41200566      -0.30642809       0.00000000
