10
Lattice="16.28999089631971 0.0 0.0 0.0 16.28999089631971 0.0 0.0 0.0 34.69518985606464" Properties=species:S:1:pos:R:3:initial_magmoms:R:1 pbc="T T T"
Si       0.74028276      -2.07438489      -0.80152872       0.00000000
Si       1.74071682       0.76343085       1.42174028       0.00000000
Si      -1.92876858      -0.25330950       1.36504831       0.00000000
Si      -0.23200218       1.38008880      -1.97065319       0.00000000
Si       2.86197381      -1.14723954      -1.50677824       0.00000000
Si      -0.55315953       3.51039726      -1.06684299       0.00000000
Si       1.15961994       0.00837306       3.57103911       0.00000000
Si      -1.17529092      -0.37429533       3.59966265       0.00000000
Si       1.42832349       3.11665167       1.71019625       0.00000000
Si       3.78020853      -0.29618478       0.60935196       0.00000000
