10
Lattice="16.28999089631971 0.0 0.0 0.0 16.28999089631971 0.0 0.0 0.0 34.69518985606464" Properties=species:S:1:pos:R:3:initial_magmoms:R:1 pbc="T T T"
Si       1.34511417       1.32958980       1.39152076       0.00000000
Si      -1.35969372       1.35422028      -1.35817866       0.00000000
Si       1.35128808      -1.36350558      -1.35741537       0.00000000
Si      -1.34912151      -1.37546244       1.36886479       0.00000000
Si      -0.38242404       2.36889180       2.73020071       0.00000000
Si      -0.00203625       2.71211599      -2.71555933       0.00000000
Si       2.71388142      -0.00301365      -2.71510829       0.00000000
Si      -2.71039536      -2.71907793      -0.00038165       0.00000000
Si       2.71425609       2.71689292       0.00104086       0.00000000
Si      -2.71643895      -0.00309510      -2.71601037       0.00000000
