10
Lattice="16.28999089631971 0.0 0.0 0.0 16.28999089631971 0.0 0.0 0.0 34.69518985606464" Properties=species:S:1:pos:R:3:initial_magmoms:R:1 pbc="T T T"
Si       1.68368553      -0.38380869       1.65582886       0.00000000
Si      -0.97718823      -1.72511100      -1.39939657       0.00000000
Si      -2.11318767       0.76150863       1.04991173       0.00000000
Si       1.58110740       1.07022042      -1.61873968       0.00000000
Si       1.48429593      -2.70777267       1.54570627       0.00000000
Si      -2.20191930      -0.21616830      -2.99981718       0.00000000
Si      -2.83838589       2.52956400      -0.35999749       0.00000000
Si       3.67145649       0.78306030       0.89642012       0.00000000
Si       2.86401006       2.61443327      -0.31593458       0.00000000
Si       0.49896270       2.52447663      -3.04315150       0.00000000
