10
Lattice="16.28999089631971 0.0 0.0 0.0 16.28999089631971 0.0 0.0 0.0 34.69518985606464" Properties=species:S:1:pos:R:3:initial_magmoms:R:1 pbc="T T T"
Si       0.38524221       0.60931116      -2.24870060       0.00000000
Si      -1.78758315       1.42539129       0.75101250       0.00000000
Si      -0.27487746      -2.39472774       0.08205417       0.00000000
Si       2.05284951       0.61133112       1.11298762       0.00000000
Si       1.10159496       2.84693814      -1.85223844       0.00000000
Si       1.94934285      -1.11752658      -3.03454709       0.00000000
Si       1.73169216       2.74163958       2.01679782       0.00000000
Si      -2.71801908       0.42451740       2.66067151       0.00000000
Si       1.83827763      -3.41200566       0.30642809       0.00000000
Si      -3.68264772       1.17094149      -0.58402446       0.00000000
