10
Lattice="16.28999089631971 0.0 0.0 0.0 16.28999089631971 0.0 0.0 0.0 34.69518985606464" Properties=species:S:1:pos:R:3:initial_magmoms:R:1 pbc="T T T"
Si      -1.20945105       0.14120172      -2.05128486       0.00000000
Si      -0.65420640      -2.12433003       0.89083419       0.00000000
Si       0.51825006       2.18090520       1.25385017       0.00000000
Si       2.52182232      -0.50085234       0.53038566       0.00000000
Si       3.02681232       0.12777876      -1.71095955       0.00000000
Si       2.20968963       0.87017922       2.63718285       0.00000000
Si       0.87878034       3.56870163      -0.78456277       0.00000000
Si      -0.20908215      -1.31890356      -3.61163250       0.00000000
Si       0.19204281      -2.33575794       3.14668794       0.00000000
Si      -1.38158748       2.26556433      -3.07673646       0.00000000
