10
Lattice="16.28999089631971 0.0 0.0 0.0 16.28999089631971 0.0 0.0 0.0 34.69518985606464" Properties=species:S:1:pos:R:3:initial_magmoms:R:1 pbc="T T T"
Si       1.35567009       1.35512808       1.35724189       0.00000000
Si       1.35762489      -1.35715759      -1.35758884       0.00000000
Si      -1.35814617       1.35862881      -1.35731128       0.00000000
Si      -1.36034532      -1.35930787       1.35724189       0.00000000
Si       2.71213360      -0.00070970      -2.71521238       0.00000000
Si       2.71412789      -2.71448926      -0.00065921       0.00000000
Si      -0.00068418       2.71375318      -2.71517769       0.00000000
Si      -2.71472850      -2.71474990       0.00041634       0.00000000
Si      -2.71630863       0.00006753      -2.71340823       0.00000000
Si       2.71426974       2.71564282       0.00010409       0.00000000
