10
Lattice="16.28999089631971 0.0 0.0 0.0 16.28999089631971 0.0 0.0 0.0 34.69518985606464" Properties=species:S:1:pos:R:3:initial_magmoms:R:1 pbc="T T T"
Si       1.35746199       1.35512438      -1.35786640       0.00000000
Si      -1.35633798       1.35743755       1.35703372       0.00000000
Si      -1.35816246      -1.35856127      -1.35609695       0.00000000
Si       1.35814617      -1.35862881       1.35731128       0.00000000
Si      -0.00193851       2.71369409       2.71167347       0.00000000
Si      -2.71384884       2.71371037      -0.00045104       0.00000000
Si       2.71381626      -0.00350072       2.71455317       0.00000000
Si      -2.71463076       0.00190756      -2.71399805       0.00000000
Si      -2.71482624      -0.00238323       2.71420622       0.00000000
Si       2.71555929       2.71384070      -0.00038165       0.00000000
