10
Lattice="16.28999089631971 0.0 0.0 0.0 16.28999089631971 0.0 0.0 0.0 34.69518985606464" Properties=species:S:1:pos:R:3:initial_magmoms:R:1 pbc="T T T"
Si       1.08214470      -1.45425621       1.42441182       0.00000000
Si      -1.33174008      -1.35334181      -1.34714558       0.00000000
Si       1.38297213       1.36098878      -1.34780479       0.00000000
Si      -1.63157382       1.08109399       1.33538391       0.00000000
Si       2.36504736       0.08995664       2.72721692       0.00000000
Si      -0.56006649       2.65827551       2.67677009       0.00000000
Si      -2.69035866      -0.00225291      -2.70681614       0.00000000
Si      -2.69289990       2.72441290       0.01363522       0.00000000
Si       0.02252907       2.71382440      -2.70934889       0.00000000
Si       0.02226843      -2.71780635      -2.70646919       0.00000000
