10
Lattice="16.28999089631971 0.0 0.0 0.0 16.28999089631971 0.0 0.0 0.0 34.69518985606464" Properties=species:S:1:pos:R:3:initial_magmoms:R:1 pbc="T T T"
Si       0.80744643      -1.83137297       1.21235470       0.00000000
Si       1.60399485       1.08125364      -1.39325552       0.00000000
Si      -1.28290266      -1.54421285      -1.30280511       0.00000000
Si      -1.82182473       1.36479738       1.75380813       0.00000000
Si       1.40496363      -0.16395233       2.77551265       0.00000000
Si       1.85027849       2.14134168       2.07970023       0.00000000
Si      -0.82393191      -0.12866331       3.49987923       0.00000000
Si      -2.36504736      -0.08995664      -2.72721692       0.00000000
Si      -1.18032453      -2.99824196       1.97176344       0.00000000
Si       0.37304100       2.61705855      -2.70841212       0.00000000
