10
Lattice="16.28999089631971 0.0 0.0 0.0 16.28999089631971 0.0 0.0 0.0 34.69518985606464" Properties=species:S:1:pos:R:3:initial_magmoms:R:1 pbc="T T T"
Si      -1.78986375       1.02312603      -1.08079046       0.00000000
Si       2.12452551       0.85610466      -0.51897094       0.00000000
Si      -0.42880167       0.54312489       2.27933647       0.00000000
Si      -0.12688281      -2.40480215      -0.15137520       0.00000000
Si       1.63833417      -0.34744941       2.99450881       0.00000000
Si      -2.48969844      -0.55094409       2.46651712       0.00000000
Si      -3.50479350       0.43412850       0.48229810       0.00000000
Si       3.35362134       0.44636229       1.42860994       0.00000000
Si      -2.12433003       0.01822851      -3.12652409       0.00000000
Si       0.11813508       0.11764638      -3.84749053       0.00000000
