10
Lattice="16.28999089631971 0.0 0.0 0.0 16.28999089631971 0.0 0.0 0.0 34.69518985606464" Properties=species:S:1:pos:R:3:initial_magmoms:R:1 pbc="T T T"
Si      -1.35772263       1.35656604       1.35710311       0.00000000
Si       1.35685662      -1.35682668       1.35779701       0.00000000
Si       1.35736398       1.35733167      -1.35692963       0.00000000
Si      -1.35809730      -1.35871632      -1.35748476       0.00000000
Si       0.00144981      -2.71029599      -2.71524708       0.00000000
Si       0.00211770       2.71414206      -2.71493482       0.00000000
Si      -0.00167787       2.71396287       2.71521238       0.00000000
Si      -2.71555929      -2.71384070       0.00038165       0.00000000
Si       2.71492791      -2.71451184       0.00020817       0.00000000
Si      -2.71749780      -0.00014661       2.71205512       0.00000000
