10
Lattice="16.28999089631971 0.0 0.0 0.0 16.28999089631971 0.0 0.0 0.0 34.69518985606464" Properties=species:S:1:pos:R:3:initial_magmoms:R:1 pbc="T T T"
Si      -2.22482304      -0.74960064      -0.19526464       0.00000000
Si       0.06274908       2.34595548      -0.25525265       0.00000000
Si       1.60691306      -0.87211773      -1.55333921       0.00000000
Si       0.09954819      -0.27678339       2.40604337       0.00000000
Si      -1.66190580       1.22552928       2.72586381       0.00000000
Si       2.67824609      -2.26163844       0.08319911       0.00000000
Si      -0.35424234       3.03352380       1.93772744       0.00000000
Si       2.29243373       2.77136883      -0.93399503       0.00000000
Si      -1.84275738       2.85202062      -1.62175817       0.00000000
Si      -1.67487264      -0.86532480      -3.28057082       0.00000000
