10
Lattice="16.28999089631971 0.0 0.0 0.0 16.28999089631971 0.0 0.0 0.0 34.69518985606464" Properties=species:S:1:pos:R:3:initial_magmoms:R:1 pbc="T T T"
Si      -1.18257255       0.98243361       1.72476824       0.00000000
Si       1.76145399      -1.50231267      -0.31982044       0.00000000
Si      -1.70127873      -1.32846579      -0.91692499       0.00000000
Si       1.30766346       1.80799452      -0.78813637       0.00000000
Si       1.66190580      -1.22552928      -2.72586381       0.00000000
Si      -1.53503928       3.03171561       0.49326179       0.00000000
Si      -0.56291724      -1.97512992      -2.92112845       0.00000000
Si       3.07882370       1.67262462       0.76267009       0.00000000
Si       1.72465488       1.12042620      -2.98111646       0.00000000
Si       3.60758244      -0.66402927       0.85166330       0.00000000
