10
Lattice="16.28999089631971 0.0 0.0 0.0 16.28999089631971 0.0 0.0 0.0 34.69518985606464" Properties=species:S:1:pos:R:3:initial_magmoms:R:1 pbc="T T T"
Si       2.14583171      -0.90971505       0.18752761       0.00000000
Si      -0.02244762       0.36417924       2.35656800       0.00000000
Si      -1.98754290      -1.19426877      -0.59769437       0.00000000
Si       0.12966840       2.03437665      -1.26006061       0.00000000
Si       0.34586928       2.68605810       2.11595673       0.00000000
Si      -0.94431501       3.38905305       0.29945435       0.00000000
Si      -1.31592249       1.59210315      -3.05251920       0.00000000
Si       1.73501532      -3.05944119       1.16138743       0.00000000
Si       3.29677576       0.46853298       1.74641805       0.00000000
Si      -1.17988470      -3.32167761      -1.36969747       0.00000000
