10
Lattice="16.28999089631971 0.0 0.0 0.0 16.28999089631971 0.0 0.0 0.0 34.69518985606464" Properties=species:S:1:pos:R:3:initial_magmoms:R:1 pbc="T T T"
Si      -1.27337301       1.33617096       1.44152002       0.00000000
Si      -1.96069698      -0.86771943      -1.06243427       0.00000000
Si       1.52001748       1.02296313      -1.58367813       0.00000000
Si       1.42536622      -1.40954112       1.41588026       0.00000000
Si       2.75019087       2.53588059      -0.05686892       0.00000000
Si      -2.61661383       2.72951982       0.02012669       0.00000000
Si      -2.63228481      -0.04803921       2.80184632       0.00000000
Si       2.53207592      -1.10156238      -2.67588332       0.00000000
Si      -2.64795579      -2.80805391       0.03183285       0.00000000
Si       0.08526186       2.66853006       2.80882005       0.00000000
