10
Lattice="16.28999089631971 0.0 0.0 0.0 16.28999089631971 0.0 0.0 0.0 34.69518985606464" Properties=species:S:1:pos:R:3:initial_magmoms:R:1 pbc="T T T"
Si       1.35609363       1.35402480       1.35429280       0.00000000
Si       1.35672894      -1.35772263      -1.35797049       0.00000000
Si      -1.35835794       1.35713619      -1.35776232       0.00000000
Si      -1.36029645      -1.35860229       1.35908074       0.00000000
Si       2.70597545       0.00840564       2.71410213       0.00000000
Si       2.71142673      -0.00140094      -2.71417152       0.00000000
Si      -0.00122175       2.71179630      -2.71538586       0.00000000
Si       2.71324823       2.71441899      -0.00083269       0.00000000
Si       2.71355325      -2.71529865      -0.00006939       0.00000000
Si      -2.71560816       2.71415835       0.00024287       0.00000000
