10
Lattice="16.28999089631971 0.0 0.0 0.0 16.28999089631971 0.0 0.0 0.0 34.69518985606464" Properties=species:S:1:pos:R:3:initial_magmoms:R:1 pbc="T T T"
Si      -1.34299647      -1.33586145      -1.39887614       0.00000000
Si       1.37191122       1.37492487      -1.39818224       0.00000000
Si      -1.49100741       1.20029607       1.58945693       0.00000000
Si       1.21593447      -1.76249655       1.43898380       0.00000000
Si       2.60620452      -0.29100456       2.59155865       0.00000000
Si      -2.71573848       2.70923877      -0.01096369       0.00000000
Si      -2.70778896      -2.71780731      -0.03653406       0.00000000
Si       2.71081890       2.73339684      -0.01637614       0.00000000
Si       2.74392018      -2.70379791      -0.03382783       0.00000000
Si       0.00834048      -2.69612532      -2.75875487       0.00000000
