10
Lattice="16.28999089631971 0.0 0.0 0.0 16.28999089631971 0.0 0.0 0.0 34.69518985606464" Properties=species:S:1:pos:R:3:initial_magmoms:R:1 pbc="T T T"
Si      -0.95371434       2.16515277       0.33293523       0.00000000
Si       0.20756718      -0.99807201       2.17591005       0.00000000
Si       1.86126251       0.30421575      -1.54105711       0.00000000
Si      -1.71549990      -1.53215595      -0.86672102       0.00000000
Si       0.92857887      -3.14893845       1.59976140       0.00000000
Si       0.73515141      -0.25594848      -3.59990552       0.00000000
Si      -2.88640881       1.52925633       1.71203510       0.00000000
Si      -2.98991547      -0.19960137      -2.43549960       0.00000000
Si      -0.55993617      -3.33044163      -1.95972420       0.00000000
Si      -1.91412387      -1.92521736       2.88115957       0.00000000
