10
Lattice="16.28999089631971 0.0 0.0 0.0 16.28999089631971 0.0 0.0 0.0 34.69518985606464" Properties=species:S:1:pos:R:3:initial_magmoms:R:1 pbc="T T T"
Si      -0.19938960      -2.32396398      -0.11012259       0.00000000
Si      -0.38879343       0.66717324       2.24894346       0.00000000
Si      -1.68368553       0.38380869      -1.65582886       0.00000000
Si       1.98777096       1.16686899      -0.75940874       0.00000000
Si       0.35639262       2.86957865       1.52811580       0.00000000
Si      -0.10257813       1.45402911      -3.27456854       0.00000000
Si       1.18032453       2.99824196      -1.97176344       0.00000000
Si       1.89193689      -3.25982448       0.25521796       0.00000000
Si       1.43633817      -2.83260294      -2.05312370       0.00000000
Si      -2.68087788       0.76098735       2.60193252       0.00000000
