10
Lattice="16.28999089631971 0.0 0.0 0.0 16.28999089631971 0.0 0.0 0.0 34.69518985606464" Properties=species:S:1:pos:R:3:initial_magmoms:R:1 pbc="T T T"
Si      -0.17886420       1.85995962      -1.41299709       0.00000000
Si       1.74206889       0.76419648       1.42475877       0.00000000
Si      -2.01975637       0.05074335       1.27976749       0.00000000
Si       0.72260811      -1.90715175      -1.32924286       0.00000000
Si       1.81874592      -1.20037752       2.73033949       0.00000000
Si       2.04972183       1.89138303      -2.17174662       0.00000000
Si      -0.75287493       3.54265146       0.13711547       0.00000000
Si       3.40320906       1.34434854      -0.18475199       0.00000000
Si      -2.54851511       2.38739724       1.19077428       0.00000000
Si      -1.28718693      -2.77239510      -2.21456051       0.00000000
