10
Lattice="16.28999089631971 0.0 0.0 0.0 16.28999089631971 0.0 0.0 0.0 34.69518985606464" Properties=species:S:1:pos:R:3:initial_magmoms:R:1 pbc="T T T"
Si      -2.29208445       0.09381411       0.35298906       0.00000000
Si       0.38879343      -0.66717324      -2.24894346       0.00000000
Si       0.74518605       2.20240541      -0.72082767       0.00000000
Si       0.59186457      -1.50589647       1.93911524       0.00000000
Si       0.66689631       3.30518303       1.27484077       0.00000000
Si       2.46866805       1.79303771       2.00954652       0.00000000
Si      -3.00843720      -2.14381287      -0.04347310       0.00000000
Si      -2.55870288       1.12235724       2.41794383       0.00000000
Si       0.18940383      -2.99113722      -2.35906606       0.00000000
Si       2.37656439       0.49969575      -3.00835220       0.00000000
