10
Lattice="16.28999089631971 0.0 0.0 0.0 16.28999089631971 0.0 0.0 0.0 34.69518985606464" Properties=species:S:1:pos:R:3:initial_magmoms:R:1 pbc="T T T"
Si       1.48484979       1.16531234       1.44175942       0.00000000
Si       0.13388751      -2.43265086       0.13794815       0.00000000
Si       1.02594420       0.51289065      -2.15599500       0.00000000
Si      -2.01414447       1.00827201       1.06434493       0.00000000
Si      -0.49839255      -0.38838618      -3.65219120       0.00000000
Si       1.03071717       3.50392103       1.30558072       0.00000000
Si       3.67108249       0.28331568       1.22866145       0.00000000
Si       3.59174693      -1.41429780      -0.45128059       0.00000000
Si      -0.37110249      -3.06128196       2.37929336       0.00000000
Si      -2.37467475      -0.37952442       3.10275787       0.00000000
