10
Lattice="16.28999089631971 0.0 0.0 0.0 16.28999089631971 0.0 0.0 0.0 34.69518985606464" Properties=species:S:1:pos:R:3:initial_magmoms:R:1 pbc="T T T"
Si       1.06349332       2.14508349       0.48712074       0.00000000
Si       0.07850151      -0.22662648      -2.46075772       0.00000000
Si       0.28446985      -1.75734891       1.81095114       0.00000000
Si      -2.64872142      -0.00112401      -0.37939211       0.00000000
Si      -1.94963607      -2.26895265      -0.50561328       0.00000000
Si      -2.14373142       0.62750709      -2.62073733       0.00000000
Si       2.75844176       1.16673867       1.87642100       0.00000000
Si       2.27337443      -2.55430458      -0.93468894       0.00000000
Si       3.43675736      -0.75899997       0.49603741       0.00000000
Si       1.51464324      -0.24443145       3.33776036       0.00000000
