10
Lattice="16.28999089631971 0.0 0.0 0.0 16.28999089631971 0.0 0.0 0.0 34.69518985606464" Properties=species:S:1:pos:R:3:initial_magmoms:R:1 pbc="T T T"
Si      -0.13652182       2.25921123      -0.76495997       0.00000000
Si       0.10564423       0.57840903       2.32614030       0.00000000
Si       2.14122797      -1.10203479       0.18284375       0.00000000
Si      -1.58821181      -1.53503928      -1.24843771       0.00000000
Si       1.90872080      -0.99996165       2.51095825       0.00000000
Si      -0.40195772      -1.02921849      -3.27252153       0.00000000
Si      -2.15942066       2.39440194      -2.07734096       0.00000000
Si       1.15980271       2.49875568      -2.68749091       0.00000000
Si       3.04447589       1.21081941      -2.02571449       0.00000000
Si      -1.72918547      -0.23166009       3.51359221       0.00000000
