10
Lattice="16.28999089631971 0.0 0.0 0.0 16.28999089631971 0.0 0.0 0.0 34.69518985606464" Properties=species:S:1:pos:R:3:initial_magmoms:R:1 pbc="T T T"
Si      -1.35654649      -1.35721764       1.35713780       0.00000000
Si       1.35765747      -1.35682668      -1.35724189       0.00000000
Si       1.35793440       1.35772263       1.35755415       0.00000000
Si      -1.35534103       1.36023129      -1.36012159       0.00000000
Si      -0.02221956      -2.70583416      -2.70757596       0.00000000
Si       2.71340901       2.71410948       0.00038165       0.00000000
Si       0.00187335      -2.71437012       2.71451848       0.00000000
Si       2.71581993       0.00021177       2.71323475       0.00000000
Si       2.71366965      -2.71585251      -0.00065921       0.00000000
Si      -2.71471967      -2.71510317       0.00003470       0.00000000
