10
Lattice="16.28999089631971 0.0 0.0 0.0 16.28999089631971 0.0 0.0 0.0 34.69518985606464" Properties=species:S:1:pos:R:3:initial_magmoms:R:1 pbc="T T T"
Si      -1.35469779      -1.35632169       1.35620103       0.00000000
Si      -1.35376926       1.35891180      -1.35616634       0.00000000
Si       1.35997274       1.35799956       1.35651329       0.00000000
Si       1.36184934      -1.35454608      -1.36078080       0.00000000
Si      -2.71142673       0.00140094       2.71417152       0.00000000
Si      -2.71264848       2.71319724      -0.00121433       0.00000000
Si       2.71561025       2.71143792      -0.00041634       0.00000000
Si       0.00212652      -2.71389771       2.71410213       0.00000000
Si      -2.71238784      -2.71578735      -0.00076329       0.00000000
Si       0.00182150       2.71581993       2.71333884       0.00000000
