10
Lattice="16.28999089631971 0.0 0.0 0.0 16.28999089631971 0.0 0.0 0.0 34.69518985606464" Properties=species:S:1:pos:R:3:initial_magmoms:R:1 pbc="T T T"
Si       1.49907096       0.74715714       1.61360479       0.00000000
Si       0.57401073      -1.68269184      -1.55011256       0.00000000
Si       0.21949146       1.76914287      -1.55368617       0.00000000
Si      -1.79564018      -1.15525422       1.05365881       0.00000000
Si       0.75287493      -3.54265146      -0.13711547       0.00000000
Si       3.40529418       1.39569462       0.35975462       0.00000000
Si      -0.92012436      -1.28203929      -3.36887012       0.00000000
Si       2.61454500       1.94328297      -1.82573130       0.00000000
Si      -3.56680043      -1.01988432      -0.49714765       0.00000000
Si      -0.67398246       1.07127927      -3.63491299       0.00000000
