10
Lattice="16.28999089631971 0.0 0.0 0.0 16.28999089631971 0.0 0.0 0.0 34.69518985606464" Properties=species:S:1:pos:R:3:initial_magmoms:R:1 pbc="T T T"
Si      -1.77116024       0.13536990      -1.55080646       0.00000000
Si       1.79564018       1.15525422      -1.05365881       0.00000000
Si       0.52875874      -2.33665389       0.08899321       0.00000000
Si      -0.82571729       0.95384466       2.04257636       0.00000000
Si      -2.49217193       2.28623634      -0.97465782       0.00000000
Si       2.36965091      -0.52743762      -2.60377137       0.00000000
Si      -3.07882370      -1.67262462      -0.76267009       0.00000000
Si      -1.31736971      -3.17493729      -1.08249053       0.00000000
Si       2.54851511      -2.38739724      -1.19077428       0.00000000
Si      -1.57393721       3.13729110       1.14147238       0.00000000
