10
Lattice="16.28999089631971 0.0 0.0 0.0 16.28999089631971 0.0 0.0 0.0 34.69518985606464" Properties=species:S:1:pos:R:3:initial_magmoms:R:1 pbc="T T T"
Si       1.35563751       1.35343836      -1.35692963       0.00000000
Si       1.35723393      -1.35721764       1.35734598       0.00000000
Si      -1.35815123       1.35782037       1.35682555       0.00000000
Si      -1.35997274      -1.35799956      -1.35651329       0.00000000
Si      -0.00439504       2.71230129       2.71392866       0.00000000
Si      -2.71374200       0.00091224      -2.71267963       0.00000000
Si      -2.71530584      -0.00257382       2.71195103       0.00000000
Si      -2.71467053      -2.71432125      -0.00031226       0.00000000
Si       2.71603170       0.00436572      -2.71368579       0.00000000
Si      -2.71465424       2.71515204      -0.00010409       0.00000000
