10
Lattice="16.28999089631971 0.0 0.0 0.0 16.28999089631971 0.0 0.0 0.0 34.376317263855086" Properties=species:S:1:pos:R:3:initial_magmoms:R:1 pbc="T T T"
Si       1.35154872      -1.36170303      -1.36305612       0.00000000
Si      -1.36304946       1.35398888      -1.36264360       0.00000000
Si       1.35687555       1.34018473       1.38395693       0.00000000
Si      -1.37062431      -1.35862422       1.36611561       0.00000000
Si      -0.09014886       2.63455067       2.77994558       0.00000000
Si       2.70868491      -2.71269789      -0.00061877       0.00000000
Si       2.71298547       2.71127657      -0.00206258       0.00000000
Si       2.71145421      -0.00178635      -2.71875570       0.00000000
Si      -2.71656927       2.71399700      -0.00006875       0.00000000
Si      -0.00294849       2.71288928      -2.71964948       0.00000000
