10
Lattice="16.28999089631971 0.0 0.0 0.0 16.28999089631971 0.0 0.0 0.0 34.376317263855086" Properties=species:S:1:pos:R:3:initial_magmoms:R:1 pbc="T T T"
Si       1.59249411       1.00525590       1.45752229       0.00000000
Si      -1.27379655       1.44809955      -1.40052632       0.00000000
Si      -1.71983304      -1.02867440       1.30190061       0.00000000
Si       1.44702441      -1.29436593      -1.39598865       0.00000000
Si      -0.33555771      -2.31440827       2.90046901       0.00000000
Si       2.65106718       2.64477924      -0.09467243       0.00000000
Si      -2.62642041       0.07944633      -2.78001433       0.00000000
Si       0.09014886      -2.63455067      -2.77994558       0.00000000
Si      -2.86946721       2.64857481       0.05307706       0.00000000
Si      -2.73940785      -2.80822400       0.07009335       0.00000000
