10
Lattice="16.28999089631971 0.0 0.0 0.0 16.28999089631971 0.0 0.0 0.0 34.376317263855086" Properties=species:S:1:pos:R:3:initial_magmoms:R:1 pbc="T T T"
Si      -2.31177906       0.34961598      -0.00347201       0.00000000
Si       0.90901458       2.14865100      -0.55562473       0.00000000
Si       0.59740317      -0.52419754       2.27873859       0.00000000
Si       0.31364766      -2.07346355      -1.29289401       0.00000000
Si       3.16112337       1.53947016      -0.24960658       0.00000000
Si      -3.01153230      -1.05328534       1.79403225       0.00000000
Si       1.49455863      -3.33989702       0.34665098       0.00000000
Si       0.35735373      -2.88200141       2.35962611       0.00000000
Si      -0.61629957       0.95353515       3.67892115       0.00000000
Si      -3.26625903      -0.27644130      -2.06137702       0.00000000
