10
Lattice="16.28999089631971 0.0 0.0 0.0 16.28999089631971 0.0 0.0 0.0 34.376317263855086" Properties=species:S:1:pos:R:3:initial_magmoms:R:1 pbc="T T T"
Si      -0.33889716      -2.23991477      -0.57779746       0.00000000
Si      -2.16883431       0.85449195       0.28436106       0.00000000
Si       0.95447997       0.62605728       2.05790501       0.00000000
Si       1.76995737       0.45160767      -1.52448739       0.00000000
Si       0.90694575      -1.39926865      -2.73247186       0.00000000
Si      -1.45984464       3.09068541       0.50110386       0.00000000
Si       0.02803509       2.87008623       2.38176447       0.00000000
Si       1.77793947      -3.28330556      -0.07143403       0.00000000
Si       3.26625903       0.27644130       2.06137702       0.00000000
Si      -3.54640631       0.16438239      -1.57533000       0.00000000
