10
Lattice="16.28999089631971 0.0 0.0 0.0 16.28999089631971 0.0 0.0 0.0 34.376317263855086" Properties=species:S:1:pos:R:3:initial_magmoms:R:1 pbc="T T T"
Si      -0.86301162      -1.85087632      -1.20798446       0.00000000
Si      -1.76995737      -0.45160767       1.52448739       0.00000000
Si       0.23330538       2.33533440      -0.53132066       0.00000000
Si       1.06504020       1.46878785      -2.65093119       0.00000000
Si      -2.10885453      -2.69152244       0.94668993       0.00000000
Si      -2.24728695      -0.56514245      -2.80655286       0.00000000
Si       2.15313075       2.86347249       0.81138467       0.00000000
Si      -0.81547740       0.17444961       3.58239240       0.00000000
Si       1.80994932      -2.24862992       2.29297040       0.00000000
Si       1.49630166      -0.17516637       3.58586441       0.00000000
