10
Lattice="16.28999089631971 0.0 0.0 0.0 16.28999089631971 0.0 0.0 0.0 34.376317263855086" Properties=species:S:1:pos:R:3:initial_magmoms:R:1 pbc="T T T"
Si      -2.25535050      -0.39087529      -0.30646504       0.00000000
Si       0.04878855       1.58481175       1.70905394       0.00000000
Si       1.02731256      -1.98527926       0.82860721       0.00000000
Si       0.69975324       1.40290132      -1.79750426       0.00000000
Si       2.39523273       2.00682049       1.88488891       0.00000000
Si      -1.14725583       3.39179629       0.72967212       0.00000000
Si       3.01153230       1.05328534      -1.79403225       0.00000000
Si       3.60893547       0.52908780       0.48470634       0.00000000
Si      -3.28654985      -1.00550092       1.71665111       0.00000000
Si       3.36888603      -1.82871607       0.56559386       0.00000000
