10
Lattice="16.28999089631971 0.0 0.0 0.0 16.28999089631971 0.0 0.0 0.0 34.376317263855086" Properties=species:S:1:pos:R:3:initial_magmoms:R:1 pbc="T T T"
Si      -1.20875058      -1.60720398      -1.26257206       0.00000000
Si      -1.41092577       1.24517502       1.58581134       0.00000000
Si       1.30844538      -1.45722195       1.57280333       0.00000000
Si       0.58968171       1.43444853      -2.15384734       0.00000000
Si       2.59877628       2.55739968       0.23497601       0.00000000
Si      -2.86557390       2.60239266       0.24205066       0.00000000
Si      -0.05629824       2.60713305       2.96772632       0.00000000
Si       2.69074962      -2.89025325       0.12611303       0.00000000
Si       2.66375709      -0.11132586       2.97150771       0.00000000
Si      -2.76504831      -2.89504251       0.07881806       0.00000000
