10
Lattice="16.28999089631971 0.0 0.0 0.0 16.28999089631971 0.0 0.0 0.0 34.376317263855086" Properties=species:S:1:pos:R:3:initial_magmoms:R:1 pbc="T T T"
Si      -2.16010287       0.81155151      -0.44936747       0.00000000
Si      -0.02955006      -0.14729418       2.38595839       0.00000000
Si       0.71107479      -1.90303038      -1.33638008       0.00000000
Si       1.90599516       1.58482152      -0.50509151       0.00000000
Si       1.76888223       2.89435833       1.49468311       0.00000000
Si       0.58735224      -1.19936754      -3.60807152       0.00000000
Si      -2.82652677       0.25783812      -2.66224100       0.00000000
Si       2.62902681      -2.86705629      -0.10931675       0.00000000
Si      -0.95402385      -3.60499329      -1.15349797       0.00000000
Si      -2.48360598       3.11472945       0.20574237       0.00000000
