10
Lattice="16.28999089631971 0.0 0.0 0.0 16.28999089631971 0.0 0.0 0.0 34.376317263855086" Properties=species:S:1:pos:R:3:initial_magmoms:R:1 pbc="T T T"
Si       2.16883431      -0.85449195      -0.28436106       0.00000000
Si       0.70898967       2.23619346       0.21674280       0.00000000
Si      -1.37757199      -0.69010956      -1.85969105       0.00000000
Si      -1.18768761      -0.26352333       2.18894760       0.00000000
Si      -2.65897502       1.61196066       1.24882355       0.00000000
Si       3.12331428      -0.22843467       1.77354395       0.00000000
Si       2.19686940       2.01559428       2.09740342       0.00000000
Si       1.82993715      -3.09440672      -0.86215852       0.00000000
Si      -2.23473455      -2.75210495      -1.12781885       0.00000000
Si      -1.23312368       3.44243538       0.69557079       0.00000000
