10
Lattice="16.28999089631971 0.0 0.0 0.0 16.28999089631971 0.0 0.0 0.0 34.376317263855086" Properties=species:S:1:pos:R:3:initial_magmoms:R:1 pbc="T T T"
Si      -0.94631868       1.52868618       1.46828208       0.00000000
Si       2.17696302      -0.48073419       0.68680483       0.00000000
Si       0.47897487       1.38051234      -1.85054695       0.00000000
Si      -1.54722420      -1.79157420       0.19340127       0.00000000
Si       2.81414637      -2.31254469      -0.66641966       0.00000000
Si       2.01569202      -0.86775201       2.98297222       0.00000000
Si      -1.28469456      -2.44771911       2.49445010       0.00000000
Si      -1.86013881       3.25596375       0.14981207       0.00000000
Si      -1.21870377       2.92855104      -2.11136021       0.00000000
Si       1.06622937       0.05523939      -3.67438348       0.00000000
