10
Lattice="16.28999089631971 0.0 0.0 0.0 16.28999089631971 0.0 0.0 0.0 34.376317263855086" Properties=species:S:1:pos:R:3:initial_magmoms:R:1 pbc="T T T"
Si       2.25535050       0.39087529       0.30646504       0.00000000
Si      -1.03119935      -0.61462563       2.02311615       0.00000000
Si      -0.88422446      -1.99049532      -0.95480275       0.00000000
Si      -1.35589815       1.75868795      -1.07563557       0.00000000
Si      -2.71610405      -1.29512409       0.44582671       0.00000000
Si      -3.34773251       0.46008010      -0.92981115       0.00000000
Si      -1.20352638       3.28885652       0.89766927       0.00000000
Si       2.30413905       1.97568704       2.01551898       0.00000000
Si       0.02453274      -3.73635978       0.34534468       0.00000000
Si       2.95510374       1.79377661      -1.49103922       0.00000000
