10
Lattice="16.28999089631971 0.0 0.0 0.0 16.28999089631971 0.0 0.0 0.0 34.376317263855086" Properties=species:S:1:pos:R:3:initial_magmoms:R:1 pbc="T T T"
Si      -0.03634299       2.20444425       0.81516607       0.00000000
Si      -2.19206385      -0.82266129      -0.41492238       0.00000000
Si       1.02315861       0.05875803      -2.24040898       0.00000000
Si       0.91233774      -1.27809711       1.92882186       0.00000000
Si       3.15753957      -0.88946658       1.26731802       0.00000000
Si      -1.87536996       2.90005983      -0.69333633       0.00000000
Si       1.67840757      -2.18479851      -2.22954605       0.00000000
Si      -1.89646551      -1.91715381      -2.46151757       0.00000000
Si      -2.48614722      -2.24819919       1.48918290       0.00000000
Si      -3.46515993       1.15865883      -0.62100852       0.00000000
