10
Lattice="16.28999089631971 0.0 0.0 0.0 16.28999089631971 0.0 0.0 0.0 34.376317263855086" Properties=species:S:1:pos:R:3:initial_magmoms:R:1 pbc="T T T"
Si      -1.99183436      -1.29860785       0.14582442       0.00000000
Si       1.35589815      -1.75868795       1.07563557       0.00000000
Si       0.15237177       1.53016857       1.97330484       0.00000000
Si       1.18768761       0.26352333      -2.18894760       0.00000000
Si      -1.47128741       1.87548399      -0.94012405       0.00000000
Si      -1.36020590      -3.05381204       1.52146228       0.00000000
Si      -3.48875504       0.07547157       1.24459526       0.00000000
Si       1.89667728       2.49971679      -1.97220480       0.00000000
Si       0.47167369      -3.74918327       0.12083282       0.00000000
Si       2.46399282       2.02398363       2.11177273       0.00000000
