10
Lattice="16.28999089631971 0.0 0.0 0.0 16.28999089631971 0.0 0.0 0.0 34.376317263855086" Properties=species:S:1:pos:R:3:initial_magmoms:R:1 pbc="T T T"
Si       1.88444349      -1.47002589       0.14293681       0.00000000
Si      -1.81545534      -1.63287702      -0.04166412       0.00000000
Si      -0.29092311       1.46709369      -1.96282006       0.00000000
Si      -0.89050914       1.25745768       1.96873279       0.00000000
Si      -1.76150286       3.14149459      -0.69230504       0.00000000
Si      -1.52164890       0.08794971      -3.51676797       0.00000000
Si      -1.68888204      -0.44062821       3.43027711       0.00000000
Si       0.59605110      -3.31393986       1.86725384       0.00000000
Si      -3.08133495      -1.19529504      -2.04783274       0.00000000
Si      -0.85074525      -3.83846157       0.14410560       0.00000000
