10
Lattice="16.28999089631971 0.0 0.0 0.0 16.28999089631971 0.0 0.0 0.0 34.376317263855086" Properties=species:S:1:pos:R:3:initial_magmoms:R:1 pbc="T T T"
Si      -0.94390776      -1.89185544      -1.03273390       0.00000000
Si       2.34157347       0.15656319      -0.26301335       0.00000000
Si      -1.02731256       1.98527926      -0.82860721       0.00000000
Si      -0.11008782      -0.77041926       2.31376808       0.00000000
Si       1.35705474      -2.53172664       1.83844647       0.00000000
Si       2.58162291       2.51436706      -0.34390087       0.00000000
Si      -0.03008763      -3.61913301       0.28573611       0.00000000
Si       3.27947022      -1.29349116       1.39004154       0.00000000
Si      -0.97852401       3.57009101       0.88044673       0.00000000
Si      -3.28266306       1.59440397      -1.13507225       0.00000000
