10
Lattice="16.28999089631971 0.0 0.0 0.0 16.28999089631971 0.0 0.0 0.0 34.376317263855086" Properties=species:S:1:pos:R:3:initial_magmoms:R:1 pbc="T T T"
Si       2.11111884       1.05619214      -0.10883548       0.00000000
Si      -1.88343351       1.37152745       0.41657245       0.00000000
Si      -0.65850696      -1.18311012      -1.98103952       0.00000000
Si       0.01920591      -1.06163559       2.17038438       0.00000000
Si      -1.22246676       2.46017186       2.41810026       0.00000000
Si       1.77318279       3.24507293      -1.07573870       0.00000000
Si       3.68054631      -0.46827234      -1.11589026       0.00000000
Si      -3.75570837      -0.09184302       1.09199870       0.00000000
Si      -1.57058406      -2.80303659       2.24271219       0.00000000
Si       0.80863560      -2.94441750      -2.45636112       0.00000000
