10
Lattice="16.28999089631971 0.0 0.0 0.0 16.28999089631971 0.0 0.0 0.0 34.376317263855086" Properties=species:S:1:pos:R:3:initial_magmoms:R:1 pbc="T T T"
Si       0.27116334      -0.19005543      -2.34800691       0.00000000
Si      -0.82165131      -1.87745508       1.23633948       0.00000000
Si       1.86194700       0.84923028       1.38758161       0.00000000
Si      -1.73714931       1.78702929      -0.08576896       0.00000000
Si      -2.08795446      -0.52908291       2.79307875       0.00000000
Si       2.16007029       1.23375573      -2.55402429       0.00000000
Si       0.61581087       2.20045320       2.80920469       0.00000000
Si       2.73095334       2.51223795      -0.22358369       0.00000000
Si      -0.70110531       3.42640180       1.26471371       0.00000000
Si      -3.36049668       0.89116074       1.38587998       0.00000000
