10
Lattice="16.28999089631971 0.0 0.0 0.0 16.28999089631971 0.0 0.0 0.0 34.376317263855086" Properties=species:S:1:pos:R:3:initial_magmoms:R:1 pbc="T T T"
Si       0.03634299      -2.20444425      -0.81516607       0.00000000
Si      -0.27116334       0.19005543       2.34800691       0.00000000
Si       1.88890695       1.42381116      -0.20601738       0.00000000
Si      -1.83902697       0.69561558      -1.50850240       0.00000000
Si      -2.00831265       1.97708472       2.26223795       0.00000000
Si      -3.01192326       2.22912360       0.07009335       0.00000000
Si       0.94868073      -3.48254136       1.11365580       0.00000000
Si       1.36288656       3.16109146      -1.68268729       0.00000000
Si       3.63374514       0.26656956      -1.27488081       0.00000000
Si      -3.42881694      -1.04578542      -1.43617459       0.00000000
