10
Lattice="16.28999089631971 0.0 0.0 0.0 16.28999089631971 0.0 0.0 0.0 34.376317263855086" Properties=species:S:1:pos:R:3:initial_magmoms:R:1 pbc="T T T"
Si       1.35539316       1.35619063       1.35707464       0.00000000
Si      -1.35707103       1.35738469      -1.35803717       0.00000000
Si       1.35739683      -1.35716367      -1.35793404       0.00000000
Si      -1.35990549      -1.35991668       1.35569958       0.00000000
Si       0.00060273       2.71262309      -2.71480242       0.00000000
Si      -0.00276930      -2.71091154       2.71813693       0.00000000
Si      -2.71440270       2.71467563      -0.00089378       0.00000000
Si       2.71339272       0.00006013      -2.71586809       0.00000000
Si      -0.00078192      -2.71470711      -2.71476804       0.00000000
Si      -2.71529865      -0.00044752      -2.71435553       0.00000000
