10
Lattice="16.28999089631971 0.0 0.0 0.0 16.28999089631971 0.0 0.0 0.0 34.376317263855086" Properties=species:S:1:pos:R:3:initial_magmoms:R:1 pbc="T T T"
Si       1.83547575       1.04901035       1.06178190       0.00000000
Si      -1.54929303      -1.17861035       1.38677579       0.00000000
Si       0.77229261      -1.69700702      -1.54088491       0.00000000
Si      -0.99797427       1.79300234      -1.37835359       0.00000000
Si      -2.49878826      -2.41652003      -0.40210001       0.00000000
Si       0.74005470       2.73531368       2.29011716       0.00000000
Si      -0.01081656      -0.72662801      -3.63708515       0.00000000
Si       0.19409535       1.65393461      -3.34485192       0.00000000
Si       2.76229530       2.54520938      -0.48725019       0.00000000
Si      -0.60377256      -3.61644143      -1.15208854       0.00000000
