10
Lattice="16.28999089631971 0.0 0.0 0.0 16.28999089631971 0.0 0.0 0.0 34.376317263855086" Properties=species:S:1:pos:R:3:initial_magmoms:R:1 pbc="T T T"
Si       1.46662128      -1.27728261      -1.20815635       0.00000000
Si       0.69434496       1.61414352       1.51444950       0.00000000
Si      -1.29461517       1.38492693      -1.40355144       0.00000000
Si      -1.35513252      -1.61907939       1.10519922       0.00000000
Si      -1.58749308       1.94605227       2.15044610       0.00000000
Si      -0.04518846      -2.52121959      -2.53432665       0.00000000
Si      -2.18893617       2.95205751       0.08979099       0.00000000
Si      -1.81472229      -3.10233276      -0.89608796       0.00000000
Si      -2.78889687      -0.16167825       2.45845808       0.00000000
Si       2.81140965       0.28038348      -2.44982962       0.00000000
