10
Lattice="16.28999089631971 0.0 0.0 0.0 16.28999089631971 0.0 0.0 0.0 34.376317263855086" Properties=species:S:1:pos:R:3:initial_magmoms:R:1 pbc="T T T"
Si       1.27342188       1.38197844      -1.40218468       0.00000000
Si       1.38289068      -1.26876294       1.41268867       0.00000000
Si      -1.35029439       1.43410644       1.39177067       0.00000000
Si      -0.73078569      -2.08246473      -1.11963865       0.00000000
Si       0.37396953       0.63930105      -3.49401913       0.00000000
Si      -1.21779153      -1.32330186      -3.28782986       0.00000000
Si       0.01645290      -2.63114451       2.76881452       0.00000000
Si       2.77355169      -2.62813086       0.04670369       0.00000000
Si      -2.76037308      -2.67965613       0.03623610       0.00000000
Si      -2.69845479       0.08822664       2.77235528       0.00000000
