10
Lattice="16.28999089631971 0.0 0.0 0.0 16.28999089631971 0.0 0.0 0.0 34.376317263855086" Properties=species:S:1:pos:R:3:initial_magmoms:R:1 pbc="T T T"
Si      -0.12046781      -1.87105474      -1.54387565       0.00000000
Si       0.26252964       2.26232262      -0.85318629       0.00000000
Si       1.94081178       0.23363118       1.49182987       0.00000000
Si      -0.99887252      -0.96466774       2.12507637       0.00000000
Si       1.21957854       2.61436581       1.97395799       0.00000000
Si      -2.95502459       0.29486529       2.07083051       0.00000000
Si      -2.67837152       2.33096868       0.95078071       0.00000000
Si      -0.67598843       3.56193882       0.87931231       0.00000000
Si       1.77745566      -3.23213867      -0.89550357       0.00000000
Si       0.68305925      -1.02970393      -3.59665858       0.00000000
