10
Lattice="16.28999089631971 0.0 0.0 0.0 16.28999089631971 0.0 0.0 0.0 34.376317263855086" Properties=species:S:1:pos:R:3:initial_magmoms:R:1 pbc="T T T"
Si      -1.82438226       1.08875844      -0.98577582       0.00000000
Si       0.89432100      -1.56713058      -1.49334243       0.00000000
Si       0.60144309      -1.00600524       2.06065511       0.00000000
Si      -2.70534546       1.48195017       1.18570860       0.00000000
Si       2.17285794      -0.01453068      -2.70191129       0.00000000
Si       2.88328113      -1.33791399       1.42465851       0.00000000
Si      -0.57019887       2.58520671      -2.47887762       0.00000000
Si       2.18893617      -2.95205751      -0.08979099       0.00000000
Si       2.99410200       1.72421505      -1.35920597       0.00000000
Si      -1.25854911       2.00647188       2.90885684       0.00000000
