10
Lattice="16.28999089631971 0.0 0.0 0.0 16.28999089631971 0.0 0.0 0.0 34.376317263855086" Properties=species:S:1:pos:R:3:initial_magmoms:R:1 pbc="T T T"
Si      -0.79923627      -0.49102947      -2.11771983       0.00000000
Si      -1.83826134       0.78289740       1.20324053       0.00000000
Si       1.36708938       1.85331330      -0.60024521       0.00000000
Si       1.13249709      -1.75470993       1.15487302       0.00000000
Si       2.50038468       1.34306163       1.43122439       0.00000000
Si      -1.59433488       1.72908576      -2.49867839       0.00000000
Si       1.68148638      -0.42026571       2.99648212       0.00000000
Si       1.29627675      -1.03899249      -3.05983771       0.00000000
Si      -2.87836155       2.02088853      -0.48786897       0.00000000
Si      -2.64719016      -1.89113868      -1.71266346       0.00000000
