10
Lattice="16.28999089631971 0.0 0.0 0.0 16.28999089631971 0.0 0.0 0.0 34.376317263855086" Properties=species:S:1:pos:R:3:initial_magmoms:R:1 pbc="T T T"
Si       2.10966903       0.04562829       0.98649773       0.00000000
Si       0.16127100       0.38701782      -2.29616739       0.00000000
Si      -1.07186571      -2.17232037      -0.07033398       0.00000000
Si      -0.98042994       1.76086755       1.44885945       0.00000000
Si       1.18947951       0.28176813       3.12855601       0.00000000
Si      -3.30038658      -1.57996710      -0.48852212       0.00000000
Si       2.73704580      -2.19251997       1.15291357       0.00000000
Si      -2.01569202       0.86775201      -2.98297222       0.00000000
Si      -0.99636156      -2.91631725       2.10843822       0.00000000
Si      -0.81023202      -1.03465935       3.51209279       0.00000000
