10
Lattice="16.28999089631971 0.0 0.0 0.0 16.28999089631971 0.0 0.0 0.0 34.376317263855086" Properties=species:S:1:pos:R:3:initial_magmoms:R:1 pbc="T T T"
Si      -1.34816040      -1.34587980       1.38058461       0.00000000
Si       1.36853919       1.36396170       1.37780013       0.00000000
Si       1.35029439      -1.43410644      -1.39177067       0.00000000
Si      -1.47059604       1.37578824      -1.39616397       0.00000000
Si      -2.71466334      -2.69267184       0.00082847       0.00000000
Si       2.62371627      -0.05212800      -2.79395535       0.00000000
Si       2.73318507      -2.70286938       0.02091800       0.00000000
Si       2.72007162       2.71836117      -0.00162600       0.00000000
Si      -2.71673217       2.72701116       0.02545911       0.00000000
Si      -2.70674640       0.00728163       2.74044373       0.00000000
