10
Lattice="16.28999089631971 0.0 0.0 0.0 16.28999089631971 0.0 0.0 0.0 34.376317263855086" Properties=species:S:1:pos:R:3:initial_magmoms:R:1 pbc="T T T"
Si      -0.94949523      -1.23790968      -1.78887580       0.00000000
Si       1.54929303       1.17861035      -1.38677579       0.00000000
Si      -1.56942747       1.52446448       1.00705478       0.00000000
Si       0.96446574      -1.77199362       1.42331784       0.00000000
Si       0.94552047      -2.43783108      -2.53886433       0.00000000
Si      -0.45942687       1.87211263       3.11208974       0.00000000
Si       2.32158564      -0.51839667      -2.92766070       0.00000000
Si      -3.68054631       0.46827234       1.11589026       0.00000000
Si      -0.76281183      -3.43466505       1.73920199       0.00000000
Si      -1.88739198       0.21214467      -3.44193069       0.00000000
