10
Lattice="16.28999089631971 0.0 0.0 0.0 16.28999089631971 0.0 0.0 0.0 34.376317263855086" Properties=species:S:1:pos:R:3:initial_magmoms:R:1 pbc="T T T"
Si      -0.52602039       1.73728030      -1.47666991       0.00000000
Si       1.74483819      -1.15724160      -1.06886343       0.00000000
Si      -1.88890695      -1.42381116       0.20601738       0.00000000
Si       0.57088305       1.27848222       2.33044060       0.00000000
Si       1.71229077       2.48098070      -1.80276384       0.00000000
Si      -2.16007029      -1.23375573       2.55402429       0.00000000
Si       3.21585777       0.66937239      -1.55071654       0.00000000
Si       1.85736951       3.14050742       0.36693302       0.00000000
Si      -1.38655593       3.53154887      -0.01058791       0.00000000
Si       0.89787222      -1.90682595      -3.16544182       0.00000000
