10
Lattice="16.28999089631971 0.0 0.0 0.0 16.28999089631971 0.0 0.0 0.0 34.376317263855086" Properties=species:S:1:pos:R:3:initial_magmoms:R:1 pbc="T T T"
Si      -1.74483819       1.15724160       1.06886343       0.00000000
Si       1.15189848      -1.39787748       1.52084350       0.00000000
Si      -0.84696597      -0.74958435      -2.09657839       0.00000000
Si       1.47101958       1.82661399      -0.48185311       0.00000000
Si       1.13759586      -1.83260871      -2.86440824       0.00000000
Si      -2.27085858       2.89452190      -0.40780648       0.00000000
Si      -0.03254742       3.63822230      -0.73390041       0.00000000
Si      -0.43986258      -3.36048039       1.72703277       0.00000000
Si       3.33459558       1.55202975       0.99351050       0.00000000
Si      -3.63374514      -0.26656956       1.27488081       0.00000000
