10
Lattice="16.28999089631971 0.0 0.0 0.0 16.28999089631971 0.0 0.0 0.0 34.376317263855086" Properties=species:S:1:pos:R:3:initial_magmoms:R:1 pbc="T T T"
Si       0.56769021      -0.30540492      -2.24609968       0.00000000
Si       1.80639810       1.01299365       1.12065826       0.00000000
Si      -1.08546786      -1.84503635       1.10937938       0.00000000
Si      -1.75321125       1.81499922      -0.28083890       0.00000000
Si      -1.62960273      -0.93349845      -2.46463005       0.00000000
Si      -2.31169761      -0.40231413       2.52122927       0.00000000
Si       0.42192729       2.33108271       2.51965827       0.00000000
Si       2.52384228      -1.56493795      -2.19185382       0.00000000
Si      -0.53486586       3.22473582      -2.08209017       0.00000000
Si       0.84434328       1.73069847      -3.36614947       0.00000000
