10
Lattice="16.28999089631971 0.0 0.0 0.0 16.28999089631971 0.0 0.0 0.0 34.376317263855086" Properties=species:S:1:pos:R:3:initial_magmoms:R:1 pbc="T T T"
Si      -1.33061607       0.26015130       1.91421192       0.00000000
Si       1.40002680      -1.79190000       0.67260740       0.00000000
Si       0.79495200       2.20633389      -0.48786897       0.00000000
Si      -2.02287591      -1.17133245      -0.61884281       0.00000000
Si       2.51891360      -0.33700752      -2.00338414       0.00000000
Si      -0.64107666      -2.53626666      -1.92727493       0.00000000
Si      -2.60211573      -1.76432103       1.74858673       0.00000000
Si       0.75886965      -1.12042620      -3.37627189       0.00000000
Si       0.11862378       0.51017022       3.78112200       0.00000000
Si      -3.16495152       0.24319341      -2.13177975       0.00000000
