10
Lattice="16.28999089631971 0.0 0.0 0.0 16.28999089631971 0.0 0.0 0.0 34.376317263855086" Properties=species:S:1:pos:R:3:initial_magmoms:R:1 pbc="T T T"
Si       1.35770634       1.16097592       1.45075015       0.00000000
Si      -1.23748614       1.37244293      -1.42840553       0.00000000
Si      -1.63582551      -1.23115749       1.31719808       0.00000000
Si       1.47041685      -1.33534833      -1.41644257       0.00000000
Si       1.91741445      -0.92321133       2.61473290       0.00000000
Si      -0.02409291       2.52591013       2.75918227       0.00000000
Si       2.75765265       2.57681638       0.00175319       0.00000000
Si      -0.16910649      -2.48340237       2.84495123       0.00000000
Si      -2.58284466       0.02022402      -2.78737087       0.00000000
Si      -2.67797826       2.69649901      -0.07992498       0.00000000
