10
Lattice="16.28999089631971 0.0 0.0 0.0 16.28999089631971 0.0 0.0 0.0 34.376317263855086" Properties=species:S:1:pos:R:3:initial_magmoms:R:1 pbc="T T T"
Si      -1.49692068       1.37407942       1.09877084       0.00000000
Si       0.63162846      -1.75520419       1.37563786       0.00000000
Si      -0.92703132      -0.84775766      -2.00169970       0.00000000
Si       1.99183436       1.29860785      -0.14582442       0.00000000
Si       0.52054695       3.17409184      -1.08594847       0.00000000
Si       2.46350805      -2.45057542      -0.02499160       0.00000000
Si       3.34773251      -0.46008010       0.92981115       0.00000000
Si       0.94478742      -1.18997377      -3.46259087       0.00000000
Si      -3.68724150       0.72247942       0.51217304       0.00000000
Si      -2.51820594      -2.56269949      -1.45755667       0.00000000
