10
Lattice="16.28999089631971 0.0 0.0 0.0 16.28999089631971 0.0 0.0 0.0 34.376317263855086" Properties=species:S:1:pos:R:3:initial_magmoms:R:1 pbc="T T T"
Si      -1.95615207       1.25953303      -0.05424586       0.00000000
Si      -0.93138075      -2.11427977      -0.71506218       0.00000000
Si       0.85819045      -1.51450427       1.81476118       0.00000000
Si       0.99887252       0.96466774      -2.12507637       0.00000000
Si       2.93968430       1.19829892      -0.63324649       0.00000000
Si       1.14561447      -3.01676206      -1.39987317       0.00000000
Si       2.77873910      -2.35195087       0.46555872       0.00000000
Si      -2.52384228       1.56493795       2.19185382       0.00000000
Si       2.94980039       1.44115024       1.86000044       0.00000000
Si       1.96530120      -0.13770914       3.31541344       0.00000000
