10
Lattice="16.28999089631971 0.0 0.0 0.0 16.28999089631971 0.0 0.0 0.0 34.376317263855086" Properties=species:S:1:pos:R:3:initial_magmoms:R:1 pbc="T T T"
Si       1.33292925      -1.31395140       1.44602684       0.00000000
Si       1.12378194       1.56700026      -1.45020842       0.00000000
Si      -0.84220929      -1.83003489      -1.35447032       0.00000000
Si      -1.39590639       1.36886499       1.44624685       0.00000000
Si       0.37613610      -0.42029829      -3.15572160       0.00000000
Si      -0.78398883       3.29406606      -1.07883394       0.00000000
Si       2.71740006      -2.63204046       0.04702683       0.00000000
Si       2.72034855       2.74839993       0.08750840       0.00000000
Si      -2.72160288      -2.75077827      -0.03182217       0.00000000
Si       2.67709860       0.03109761       2.81707890       0.00000000
