10
Lattice="16.28999089631971 0.0 0.0 0.0 16.28999089631971 0.0 0.0 0.0 34.376317263855086" Properties=species:S:1:pos:R:3:initial_magmoms:R:1 pbc="T T T"
Si       0.48641940      -0.78701877      -2.20283564       0.00000000
Si       0.00278559      -1.81640016       1.64477019       0.00000000
Si      -0.72596385       2.31684525       0.42960108       0.00000000
Si       2.32528577       0.80068608       0.17714126       0.00000000
Si      -1.98964431      -1.70137647      -0.70835879       0.00000000
Si      -1.40612022       1.87422966       2.63580560       0.00000000
Si       0.53252010      -3.49617609       0.00522520       0.00000000
Si       1.59542861      -2.87886654      -2.06701474       0.00000000
Si      -2.90362734       0.06213006       2.75870100       0.00000000
Si       2.44437056       3.17272185      -0.53352074       0.00000000
