10
Lattice="16.28999089631971 0.0 0.0 0.0 16.28999089631971 0.0 0.0 0.0 34.376317263855086" Properties=species:S:1:pos:R:3:initial_magmoms:R:1 pbc="T T T"
Si      -1.46671902       1.25224488      -1.52775315       0.00000000
Si       2.08652094       1.56019104      -0.23021833       0.00000000
Si       1.51646868      -1.77143976      -1.31341669       0.00000000
Si      -1.84845888       0.47640105       1.92232474       0.00000000
Si       0.77442660      -2.07891351       2.42975384       0.00000000
Si       0.16910649       2.48340237      -2.84495123       0.00000000
Si      -2.60446149      -0.36768159      -2.83078818       0.00000000
Si       2.71075374       2.32674957       1.93755345       0.00000000
Si       2.82038544      -0.40273767      -2.90840995       0.00000000
Si      -0.75223962       0.95402385       3.94258765       0.00000000
