10
Lattice="16.28999089631971 0.0 0.0 0.0 16.28999089631971 0.0 0.0 0.0 34.376317263855086" Properties=species:S:1:pos:R:3:initial_magmoms:R:1 pbc="T T T"
Si      -1.53964935      -1.40939451       1.04950955       0.00000000
Si       1.56900949      -1.49413509      -1.00829233       0.00000000
Si      -1.16027154       0.80179380      -1.95219777       0.00000000
Si       1.09778703       1.91518272       1.03469335       0.00000000
Si       3.20141573       0.30792987      -1.06587269       0.00000000
Si      -0.97920819       2.81766501       1.71950435       0.00000000
Si      -2.69498502      -2.40810183      -0.72444691       0.00000000
Si      -1.41291315       3.13945767      -1.64030127       0.00000000
Si       2.72850074       2.66447385      -0.58601341       0.00000000
Si      -3.17620791      -0.56697345      -2.13841439       0.00000000
