10
Lattice="16.28999089631971 0.0 0.0 0.0 16.28999089631971 0.0 0.0 0.0 34.376317263855086" Properties=species:S:1:pos:R:3:initial_magmoms:R:1 pbc="T T T"
Si       0.89615037       0.35095176       2.19097581       0.00000000
Si       1.81091532      -1.58426766      -0.39474347       0.00000000
Si      -2.32528577      -0.80068608      -0.17714126       0.00000000
Si       0.11908479       2.37203577      -0.71066200       0.00000000
Si       2.71372341       1.52213760       1.17446754       0.00000000
Si      -1.83886637      -1.58770485      -2.37997690       0.00000000
Si      -3.05124962       1.51615917       0.25245982       0.00000000
Si       3.38786877       0.13163949      -0.69484889       0.00000000
Si      -1.49890806       3.32373015       0.70777439       0.00000000
Si      -2.32250018      -2.61708624       1.46762893       0.00000000
