10
Lattice="16.28999089631971 0.0 0.0 0.0 16.28999089631971 0.0 0.0 0.0 34.376317263855086" Properties=species:S:1:pos:R:3:initial_magmoms:R:1 pbc="T T T"
Si       1.35616949       1.35692442       1.35690275       0.00000000
Si       1.35739613      -1.35725511      -1.35728089       0.00000000
Si      -1.35753341       1.35759231      -1.35762466       0.00000000
Si      -1.35808727      -1.35959109       1.35769341       0.00000000
Si       0.00326803       2.71402803       2.71328986       0.00000000
Si       0.00294223      -2.71340569       2.71528369       0.00000000
Si      -2.71460444       0.00021177      -2.71418365       0.00000000
Si      -0.00036002      -2.71454330      -2.71463054       0.00000000
Si       2.71459910       2.71495656       0.00010313       0.00000000
Si      -0.00103982       2.71544526      -2.71428678       0.00000000
