10
Lattice="16.28999089631971 0.0 0.0 0.0 16.28999089631971 0.0 0.0 0.0 34.376317263855086" Properties=species:S:1:pos:R:3:initial_magmoms:R:1 pbc="T T T"
Si       1.35536058       1.35625935       1.35659337       0.00000000
Si       1.35744570      -1.35723341      -1.35738402       0.00000000
Si      -1.35746362       1.35826302      -1.35734965       0.00000000
Si      -1.35957643      -1.35788501       1.35693713       0.00000000
Si      -2.71191752       0.00211244       2.71521494       0.00000000
Si       2.71456560       0.00003659      -2.71387426       0.00000000
Si       0.00166158      -2.71507007      -2.71366800       0.00000000
Si      -2.71459111      -2.71453250       0.00020626       0.00000000
Si       2.71510317      -2.71448363      -0.00020626       0.00000000
Si      -2.71521976       0.00097482      -2.71469929       0.00000000
