10
Lattice="16.28999089631971 0.0 0.0 0.0 16.28999089631971 0.0 0.0 0.0 34.376317263855086" Properties=species:S:1:pos:R:3:initial_magmoms:R:1 pbc="T T T"
Si      -1.97627252       0.01982493      -1.20513123       0.00000000
Si       1.10285418      -1.77360633      -1.04332181       0.00000000
Si       0.17377032      -0.88845660       2.17175943       0.00000000
Si       0.55288749       2.32472961       0.08594084       0.00000000
Si       2.18165943       0.17541072       2.79211480       0.00000000
Si      -0.78389923      -3.32154729      -0.97941620       0.00000000
Si      -3.61520942       1.18495089      -0.04145786       0.00000000
Si      -2.85629090      -2.17904814      -1.37065329       0.00000000
Si       2.86711005       2.57482998      -0.15706548       0.00000000
Si      -1.60774385       0.46731123      -3.47881650       0.00000000
