10
Lattice="16.28999089631971 0.0 0.0 0.0 16.28999089631971 0.0 0.0 0.0 34.376317263855086" Properties=species:S:1:pos:R:3:initial_magmoms:R:1 pbc="T T T"
Si      -1.56900949       1.49413509       1.00829233       0.00000000
Si       1.63240624       1.80206496      -0.05758036       0.00000000
Si       0.60128508      -2.18784474       0.96250304       0.00000000
Si      -0.88845986      -0.56568654      -2.24999997       0.00000000
Si      -2.72928103       2.29592889      -0.94390545       0.00000000
Si       2.31681430       1.77618015      -2.27732916       0.00000000
Si      -1.59662104       1.66237821      -2.90043464       0.00000000
Si      -3.10865884       0.08474058       2.05780188       0.00000000
Si      -1.57239781      -3.10752927       1.35851844       0.00000000
Si       1.50659857      -3.53846493      -0.76679856       0.00000000
