10
Lattice="16.28999089631971 0.0 0.0 0.0 16.28999089631971 0.0 0.0 0.0 34.376317263855086" Properties=species:S:1:pos:R:3:initial_magmoms:R:1 pbc="T T T"
Si       1.61799285      -0.95169438      -1.41843640       0.00000000
Si      -1.55234156      -1.80757098      -0.45531458       0.00000000
Si      -0.70816118       2.22806475      -0.65043466       0.00000000
Si       0.88845986       0.56568654       2.24999997       0.00000000
Si      -2.23249793      -2.25018657       1.75088995       0.00000000
Si      -1.84082117       2.86161543       1.30609453       0.00000000
Si       1.39266794       3.10868586      -1.34803366       0.00000000
Si      -2.98988519      -0.64161423      -2.06639596       0.00000000
Si       1.49890806      -3.32373015      -0.70777439       0.00000000
Si       3.62588196       0.11217294      -0.79808103       0.00000000
