10
Lattice="16.28999089631971 0.0 0.0 0.0 16.28999089631971 0.0 0.0 0.0 34.376317263855086" Properties=species:S:1:pos:R:3:initial_magmoms:R:1 pbc="T T T"
Si      -0.09022217       0.09767484       2.36223871       0.00000000
Si      -0.60254755       1.89638406      -1.29674416       0.00000000
Si      -1.16824387      -2.10409785      -0.00728778       0.00000000
Si       2.03621742      -0.38809296      -1.22998532       0.00000000
Si      -3.14875016      -0.64783701      -1.23641369       0.00000000
Si      -1.84483340       0.72086508      -2.83140695       0.00000000
Si       3.30209703      -0.82567494       0.77618330       0.00000000
Si       1.13583654      -1.93761405      -2.72294961       0.00000000
Si       2.00673252      -0.91891890       2.85883927       0.00000000
Si      -2.57869790       2.68379379      -0.15321533       0.00000000
