10
Lattice="10.86 0.0 0.0 0.0 10.86 0.0 0.0 0.0 10.86" Properties=species:S:1:pos:R:3:initial_magmoms:R:1 pbc="T T T"
Si       1.55914848      -1.58710212      -1.09128882       0.00000000
Si       1.55914848       1.12789788       1.62371118       0.00000000
Si      -1.15585152      -1.58710212       1.62371118       0.00000000
Si      -0.81785574       1.94251734      -1.54852740       0.00000000
Si      -2.01559428      -0.03931320      -2.33490000       0.00000000
Si      -2.41529658       2.44093704       0.52411446       0.00000000
Si       2.73606840       2.65652976       0.03313386       0.00000000
Si       0.20164848      -2.94460212      -2.44878882       0.00000000
Si      -2.51335152      -2.94460212       0.26621118       0.00000000
Si       0.20164848       2.48539788       2.98121118       0.00000000
