10
Lattice="10.86 0.0 0.0 0.0 10.86 0.0 0.0 0.0 10.86" Properties=species:S:1:pos:R:3:initial_magmoms:R:1 pbc="T T T"
Si       1.38107706       1.26547236       1.27474680       0.00000000
Si      -1.33392294       1.26547236      -1.44025320       0.00000000
Si      -1.33392294      -1.44952764       1.27474680       0.00000000
Si       2.55799698      -2.63589576      -0.31583052       0.00000000
Si       0.02357706       2.62297236       2.63224680       0.00000000
Si      -2.69142294       2.62297236      -0.08275320       0.00000000
Si      -2.69142294      -0.09202764       2.63224680       0.00000000
Si       2.73857706       2.62297236      -0.08275320       0.00000000
Si       2.73857706      -0.09202764       2.63224680       0.00000000
Si       0.02357706       2.62297236      -2.79775320       0.00000000
