10
Lattice="10.86 0.0 0.0 0.0 10.86 0.0 0.0 0.0 10.86" Properties=species:S:1:pos:R:3:initial_magmoms:R:1 pbc="T T T"
Si       1.46393886       1.16667894       1.41542724       0.00000000
Si      -1.25106114      -1.54832106       1.41542724       0.00000000
Si       1.46393886      -1.54832106      -1.29957276       0.00000000
Si      -2.66388198       2.51568642       0.11474676       0.00000000
Si       0.10643886       2.52417894       2.77292724       0.00000000
Si       2.82143886       2.52417894       0.05792724       0.00000000
Si      -2.60856114      -0.19082106       2.77292724       0.00000000
Si       0.29580468       2.64775488      -2.78173470       0.00000000
Si       2.82143886      -0.19082106      -2.65707276       0.00000000
Si      -2.64182532      -2.93608788      -0.20568840       0.00000000
