10
Lattice="10.86 0.0 0.0 0.0 10.86 0.0 0.0 0.0 10.86" Properties=species:S:1:pos:R:3:initial_magmoms:R:1 pbc="T T T"
Si       1.16813418      -1.48107594      -1.23283806       0.00000000
Si       1.16813418       1.23392406       1.48216194       0.00000000
Si      -1.54686582       1.23392406      -1.23283806       0.00000000
Si       2.52563418      -0.12357594      -2.59033806       0.00000000
Si       2.52563418       2.59142406       0.12466194       0.00000000
Si      -0.18936582       2.59142406      -2.59033806       0.00000000
Si      -2.77723866      -0.23583576      -2.44205562       0.00000000
Si       2.52563418      -2.83857594       0.12466194       0.00000000
Si       2.52563418      -0.12357594       2.83966194       0.00000000
Si      -0.18936582       2.59142406       2.83966194       0.00000000
