10
Lattice="10.86 0.0 0.0 0.0 10.86 0.0 0.0 0.0 10.86" Properties=species:S:1:pos:R:3:initial_magmoms:R:1 pbc="T T T"
Si       1.39230630      -1.17870096      -1.25847852       0.00000000
Si      -1.32269370      -1.17870096       1.45652148       0.00000000
Si       1.39230630       1.53629904       1.45652148       0.00000000
Si       0.03480630      -2.53620096      -2.61597852       0.00000000
Si      -2.68019370      -2.53620096       0.09902148       0.00000000
Si       2.74980630      -2.53620096       0.09902148       0.00000000
Si      -2.74582068       0.26297490       2.54370522       0.00000000
Si       0.03480630      -2.53620096       2.81402148       0.00000000
Si      -2.74786236       0.31040052      -2.59235802       0.00000000
Si       2.74980630       0.17879904      -2.61597852       0.00000000
