10
Lattice="10.86 0.0 0.0 0.0 10.86 0.0 0.0 0.0 10.86" Properties=species:S:1:pos:R:3:initial_magmoms:R:1 pbc="T T T"
Si       1.35750000       1.35750000       1.35750000       0.00000000
Si       1.35750000      -1.35750000      -1.35750000       0.00000000
Si      -1.35750000       1.35750000      -1.35750000       0.00000000
Si      -1.35750000      -1.35750000       1.35750000       0.00000000
Si       2.56863978       2.64906894      -0.24440430       0.00000000
Si       2.47673160      -0.15372330      -2.81186034       0.00000000
Si      -2.77180866       0.16035876       2.58708006       0.00000000
Si      -2.45837820       2.89296282      -0.24330744       0.00000000
Si       2.74977372      -0.13009194       2.67394920       0.00000000
Si       0.00000000       2.71500000       2.71500000       0.00000000
