10
Lattice="10.86 0.0 0.0 0.0 10.86 0.0 0.0 0.0 10.86" Properties=species:S:1:pos:R:3:initial_magmoms:R:1 pbc="T T T"
Si       0.96979800      -0.96887490      -1.59006690       0.00000000
Si      -1.39227372      -1.22740806       1.39855080       0.00000000
Si      -1.39227372       1.48759194      -1.31644920       0.00000000
Si       1.32272628       1.48759194       1.39855080       0.00000000
Si       2.61459930      -2.50073220      -0.22926546       0.00000000
Si      -2.74977372      -2.58490806       0.04105080       0.00000000
Si      -0.03477372      -2.58490806       2.75605080       0.00000000
Si      -0.07658472      -2.66065656      -2.71325154       0.00000000
Si       2.69578866       2.70811476       0.11267250       0.00000000
Si      -2.74977372       0.13009194      -2.67394920       0.00000000
