10
Lattice="10.86 0.0 0.0 0.0 10.86 0.0 0.0 0.0 10.86" Properties=species:S:1:pos:R:3:initial_magmoms:R:1 pbc="T T T"
Si       1.41430866       1.19714124       1.48541994       0.00000000
Si       1.41430866      -1.51785876      -1.22958006       0.00000000
Si      -1.30069134      -1.51785876       1.48541994       0.00000000
Si      -2.64262896       2.41766406       0.19954164       0.00000000
Si       2.77180866       2.55464124       0.12791994       0.00000000
Si       2.77180866      -0.16035876      -2.58708006       0.00000000
Si       0.05680866       2.55464124       2.84291994       0.00000000
Si      -2.65819134      -0.16035876       2.84291994       0.00000000
Si      -2.72381832      -2.79118290      -0.14239632       0.00000000
Si       0.31343046       2.73260406      -2.83038750       0.00000000
