10
Lattice="16.290000149 0.0 0.0 0.0 16.290000149 0.0 0.0 0.0 29.1751946751" Properties=species:S:1:pos:R:3:initial_magmoms:R:1 pbc="T T T"
H        0.45600597       1.28177866      -0.66315217       0.00000000
Si      -0.81810010       0.99465112       1.93554077       0.00000000
Si      -1.87906781      -0.70793083      -1.27233024       0.00000000
Si       2.00946926      -1.36803421      -0.07950241       0.00000000
H        0.97300171      -0.27803772      -2.46197798       0.00000000
H       -0.65961469      -2.67136454      -1.05550019       0.00000000
Si       3.17266975       0.68849686      -0.66776186       0.00000000
Si      -2.32015214       2.30389472       0.63692367       0.00000000
Si       0.78418432      -2.95495716      -1.49382832       0.00000000
Si       2.00085185       0.83163709      -2.67965411       0.00000000
