10
Lattice="16.290000149 0.0 0.0 0.0 16.290000149 0.0 0.0 0.0 29.1751946751" Properties=species:S:1:pos:R:3:initial_magmoms:R:1 pbc="T T T"
Si      -1.36775728      -1.35842311      -1.32828826       0.00000000
Si      -1.44368497       1.33064866       1.27904053       0.00000000
Si       1.35612622       1.35190711      -1.35874717       0.00000000
Si       1.36857178      -1.32258511       1.37832372       0.00000000
Si      -0.09581778       2.67522527       2.59148667       0.00000000
Si      -0.08922033      -2.61931799       2.68140462       0.00000000
Si       0.00348606      -2.71482626      -2.66147796       0.00000000
Si      -2.70989039       0.02554272      -2.67168928       0.00000000
Si       2.73297333      -0.01425375      -2.67201020       0.00000000
Si       2.73422766       2.69133608      -0.02447799       0.00000000
