10
Lattice="16.290000149 0.0 0.0 0.0 16.290000149 0.0 0.0 0.0 29.1751946751" Properties=species:S:1:pos:R:3:initial_magmoms:R:1 pbc="T T T"
Si      -1.26477320       1.37209042       1.41873137       0.00000000
Si       1.35760535      -1.32613633       1.37899475       0.00000000
Si      -1.38445779      -1.35260758      -1.34103782       0.00000000
Si       1.34253710       1.37266057      -1.36420293       0.00000000
Si       2.67127984       0.14177187       2.65097489       0.00000000
Si       0.02334520      -2.68104895      -2.69362902       0.00000000
Si      -2.65805887       2.73137691       0.07092490       0.00000000
Si      -2.67329002       0.03678282      -2.71892392       0.00000000
Si      -0.04379404      -2.61234750       2.78707717       0.00000000
Si      -2.55640927       0.01368360       2.86477072       0.00000000
