10
Lattice="16.290000149 0.0 0.0 0.0 16.290000149 0.0 0.0 0.0 29.1751946751" Properties=species:S:1:pos:R:3:initial_magmoms:R:1 pbc="T T T"
Si       1.68524939      -1.66902455      -0.25916325       0.00000000
Si      -1.86227282      -0.82707589      -1.26124367       0.00000000
Si       0.69102181       1.84871954      -1.41528869       0.00000000
Si      -0.62752339       0.34611363       2.32505879       0.00000000
H        2.22454613       0.77600674       1.13541105       0.00000000
H       -1.06621309       2.51900417       0.08446219       0.00000000
H       -2.61928541      -0.27857529       1.24178381       0.00000000
H        0.59192974      -1.61732008       2.54188884       0.00000000
H       -0.51297210       2.31928877      -2.20978760       0.00000000
H       -3.25809777       0.16130358       1.19145660       0.00000000
