10
Lattice="16.290000149 0.0 0.0 0.0 16.290000149 0.0 0.0 0.0 29.1751946751" Properties=species:S:1:pos:R:3:initial_magmoms:R:1 pbc="T T T"
Si      -0.93132049       0.81520374       1.99494146       0.00000000
Si       1.36509713       1.38333378      -1.33321887       0.00000000
Si      -1.86892402      -0.90193333      -1.11951057       0.00000000
Si       1.84128641      -1.17497816       0.93170984       0.00000000
H        2.64568662       1.42205511      -0.51217054       0.00000000
H       -2.91599636       0.21125198      -1.10247226       0.00000000
Si       0.52432298      -2.60185186       2.27767827       0.00000000
Si       1.96554653      -0.14071465      -3.08740663       0.00000000
Si       0.40209585       2.79297265       2.48187546       0.00000000
Si      -0.64575287      -1.00995916       3.56456694       0.00000000
