10
Lattice="16.290000149 0.0 0.0 0.0 16.290000149 0.0 0.0 0.0 29.1751946751" Properties=species:S:1:pos:R:3:initial_magmoms:R:1 pbc="T T T"
Si       1.36190917      -1.36135531       1.33654484       0.00000000
Si      -1.35511624      -1.36326124      -1.34337184       0.00000000
Si       1.37611405       1.33617097      -1.36181056       0.00000000
Si      -1.38411244       1.33776739       1.36038098       0.00000000
Si       2.65465100       0.07527609       2.64788232       0.00000000
Si       0.03000618      -2.72081773      -2.67647401       0.00000000
Si      -2.68110759      -0.00294849      -2.71743598       0.00000000
Si      -2.70683113       2.70412373      -0.00519318       0.00000000
Si      -2.70330435      -2.71594213       0.03095488       0.00000000
Si       0.03398094       2.72013680      -2.70521158       0.00000000
