10
Lattice="16.290000149 0.0 0.0 0.0 16.290000149 0.0 0.0 0.0 29.1751946751" Properties=species:S:1:pos:R:3:initial_magmoms:R:1 pbc="T T T"
Si      -1.36818082      -1.34931700      -1.33747845       0.00000000
Si      -1.36528120       1.34648254       1.35113244       0.00000000
Si       1.32638068      -1.38240199       1.35903892       0.00000000
Si       1.38542753       1.33089301      -1.36764560       0.00000000
Si       0.07436385      -2.68182435      -2.61972826       0.00000000
Si       2.69656355      -0.01058850       2.68117122       0.00000000
Si      -0.00821016       2.71336016       2.68178389       0.00000000
Si      -2.69462666       2.71321355      -0.02441964       0.00000000
Si       0.05523939       2.73952191      -2.67807864       0.00000000
Si       2.71977354       2.70873380      -0.02310675       0.00000000
