10
Lattice="16.290000149 0.0 0.0 0.0 16.290000149 0.0 0.0 0.0 29.1751946751" Properties=species:S:1:pos:R:3:initial_magmoms:R:1 pbc="T T T"
Si       1.43154241      -1.21187827       1.38404206       0.00000000
Si      -1.43220704       1.24245460       1.37257621       0.00000000
Si      -1.36126213      -1.40766778      -1.31291294       0.00000000
Si       1.36441132       1.43164666      -1.29952152       0.00000000
H       -1.18429116      -1.45412686       3.06546688       0.00000000
Si      -0.04470465      -2.41649120       2.77310225       0.00000000
Si       2.57479091      -2.63798633      -0.08066941       0.00000000
Si      -0.01172880       2.68429880       2.53707493       0.00000000
Si       2.55753980       0.02731833      -2.77753688       0.00000000
Si      -2.72752269       2.65665467       0.01808862       0.00000000
