10
Lattice="16.290000149 0.0 0.0 0.0 16.290000149 0.0 0.0 0.0 29.1751946751" Properties=species:S:1:pos:R:3:initial_magmoms:R:1 pbc="T T T"
Si      -0.83461816       1.24376595      -1.71328413       0.00000000
Si      -1.83205487      -1.02177397       0.94269722       0.00000000
Si       1.03892734       1.85375641       0.95256135       0.00000000
Si       1.74477305      -1.54279333      -0.45371279       0.00000000
H       -1.01327059       2.63174726      -1.10378514       0.00000000
Si      -0.42549480      -2.38568681       2.19624447       0.00000000
Si       1.49299480      -1.03114072      -2.75285467       0.00000000
Si       2.45708588       0.51076905       2.20536755       0.00000000
Si       1.06013692       1.25903293      -3.05283402       0.00000000
Si       0.99745300      -0.92580958       3.42006220       0.00000000
