10
Lattice="16.290000149 0.0 0.0 0.0 16.290000149 0.0 0.0 0.0 29.1751946751" Properties=species:S:1:pos:R:3:initial_magmoms:R:1 pbc="T T T"
Si      -0.51465975      -0.90973135      -2.09317434       0.00000000
Si       2.05615640       1.01015920       0.72167762       0.00000000
Si      -1.41436623       1.94759984       0.00676865       0.00000000
Si      -0.68364407      -1.76246399       1.50544005       0.00000000
H        1.45266076       1.57071439      -2.38145444       0.00000000
Si      -1.94668760      -0.33485724       2.83230806       0.00000000
H        2.85532752      -0.45905220      -1.92477512       0.00000000
Si       0.25604622       1.20461293      -3.27129788       0.00000000
Si       1.04850586       2.25015401       2.56479136       0.00000000
Si      -3.08674326       1.16641288       1.45035728       0.00000000
