10
Lattice="16.290000149 0.0 0.0 0.0 16.290000149 0.0 0.0 0.0 29.1751946751" Properties=species:S:1:pos:R:3:initial_magmoms:R:1 pbc="T T T"
Si       1.14909661      -1.63607313      -1.19857535       0.00000000
Si      -1.29484324      -1.47714789       1.25969738       0.00000000
Si      -1.46352619       1.58892336      -0.93742818       0.00000000
Si       1.18920259       1.10546710       1.71118352       0.00000000
Si      -0.81985942       1.98094221       2.66918021       0.00000000
Si      -2.33385203       0.12702942       2.59522109       0.00000000
H        2.34598808      -1.37250093      -2.23487826       0.00000000
Si       2.60993691       2.52027154       0.34712647       0.00000000
Si      -0.10723707       2.59856128      -2.56236982       0.00000000
Si       1.75283660      -0.65688122       3.20944647       0.00000000
