10
Lattice="16.290000149 0.0 0.0 0.0 16.290000149 0.0 0.0 0.0 29.1751946751" Properties=species:S:1:pos:R:3:initial_magmoms:R:1 pbc="T T T"
Si      -1.68524939       1.66902455       0.25916325       0.00000000
Si       0.35047935      -0.23188815       2.36272397       0.00000000
Si       1.63751969       1.06424200      -1.43401917       0.00000000
Si      -1.07514001      -1.68205655      -1.38856422       0.00000000
H        1.88543557      -1.63233947       0.25887150       0.00000000
H        0.53929674       2.44503128       1.39457431       0.00000000
H       -1.09331965       0.05170446       2.80105209       0.00000000
Si      -2.41774553      -0.26544555      -2.75886476       0.00000000
Si       0.34220403       2.47844207      -2.78850676       0.00000000
Si      -3.54752220       0.84194866      -1.00208041       0.00000000
