10
Lattice="16.290000149 0.0 0.0 0.0 16.290000149 0.0 0.0 0.0 29.1751946751" Properties=species:S:1:pos:R:3:initial_magmoms:R:1 pbc="T T T"
Si      -1.35610179       1.40781439      -1.31285459       0.00000000
Si       1.17294517       1.46872270       1.44890727       0.00000000
Si      -1.48872031      -1.19923723       1.43410086       0.00000000
Si       1.00765054      -1.23999481      -1.84311375       0.00000000
Si      -2.46287209      -0.30255417      -2.55802272       0.00000000
Si      -1.04850586      -2.25015401      -2.56479136       0.00000000
Si       2.40174875       0.49824594      -2.75851466       0.00000000
Si      -0.12950550      -2.53843814       2.81426554       0.00000000
Si       2.54646911       0.11719026       2.80949247       0.00000000
Si       2.47329443       2.95226931       0.17516291       0.00000000
