10
Lattice="16.290000149 0.0 0.0 0.0 16.290000149 0.0 0.0 0.0 29.1751946751" Properties=species:S:1:pos:R:3:initial_magmoms:R:1 pbc="T T T"
Si      -0.73961488       1.32269914      -1.79194046       0.00000000
Si      -0.62698582       1.06986205       2.04468517       0.00000000
Si       2.00906201      -0.87547511      -0.95799669       0.00000000
Si      -1.51399261      -1.85391279      -0.07395912       0.00000000
H        2.46329237       1.38595321       1.03662384       0.00000000
H        1.24325281      -0.78361417       2.76271588       0.00000000
Si       0.81985942      -1.98094221      -2.66918021       0.00000000
Si      -2.49849506       2.29081385      -0.53256400       0.00000000
Si      -0.64366678      -0.39201885      -3.60660839       0.00000000
Si       2.57269601      -2.63782343       0.54026626       0.00000000
