10
Lattice="16.290000149 0.0 0.0 0.0 16.290000149 0.0 0.0 0.0 29.1751946751" Properties=species:S:1:pos:R:3:initial_magmoms:R:1 pbc="T T T"
Si       1.30989031       1.36537275      -1.34497647       0.00000000
Si      -1.29248934       1.55358383       1.18830568       0.00000000
Si       1.25657314      -1.35070165       1.47422259       0.00000000
Si      -1.44863648      -1.35374788      -1.28884340       0.00000000
H       -1.71918634       0.15025896       1.85901423       0.00000000
Si       2.59479666      -2.68827356       0.06485646       0.00000000
Si       2.60320230       2.69625404       0.10383452       0.00000000
Si      -0.15695415       2.68813510      -2.62661360       0.00000000
Si       2.63692260      -0.02234988      -2.68286338       0.00000000
Si      -0.11824422      -2.73313623      -2.65456344       0.00000000
