10
Lattice="16.290000149 0.0 0.0 0.0 16.290000149 0.0 0.0 0.0 29.1751946751" Properties=species:S:1:pos:R:3:initial_magmoms:R:1 pbc="T T T"
H        1.19689147       0.26357220      -1.03630291       0.00000000
Si      -1.18482058      -1.36443412      -1.46932115       0.00000000
Si      -1.14909661       1.63607313       1.19857535       0.00000000
Si       1.36814824      -1.39918069       1.29129412       0.00000000
Si       1.62358848       1.66689707      -1.70701147       0.00000000
H       -1.82697239      -2.23062230      -0.42703732       0.00000000
Si      -2.44393985       0.15892524       2.45827273       0.00000000
Si       2.70295085      -2.62624124      -0.20615193       0.00000000
Si       0.04531878      -2.67048488       2.75653074       0.00000000
Si      -2.72943840      -0.21768327      -2.77216865       0.00000000
