10
Lattice="16.290000149 0.0 0.0 0.0 16.290000149 0.0 0.0 0.0 29.1751946751" Properties=species:S:1:pos:R:3:initial_magmoms:R:1 pbc="T T T"
Si      -1.44591670       1.19417104       1.35575583       0.00000000
Si      -1.35765748      -1.34732962      -1.34045432       0.00000000
Si       1.27984015      -1.49504734       1.33665658       0.00000000
Si       1.31193145       1.36609570      -1.48516328       0.00000000
Si       2.16049385      -0.50811768      -2.60058933       0.00000000
Si       0.36372312      -2.10375578      -2.72049938       0.00000000
Si      -0.01897785       2.55355526       2.63496646       0.00000000
Si      -2.80337708       2.43524099      -0.10205483       0.00000000
Si       2.69272073      -0.19868913       2.67994002       0.00000000
Si      -2.79126709      -0.26770986       2.58919641       0.00000000
