10
Lattice="16.290000149 0.0 0.0 0.0 16.290000149 0.0 0.0 0.0 29.1751946751" Properties=species:S:1:pos:R:3:initial_magmoms:R:1 pbc="T T T"
Si      -1.61401321       0.17444961       1.67774874       0.00000000
Si       0.83605168       1.92972156      -1.01628873       0.00000000
Si       1.76995739      -1.15512391       1.03195581       0.00000000
Si      -1.56256939      -0.77471983      -1.59629160       0.00000000
H       -0.21102066       3.04290687      -0.99925042       0.00000000
Si      -2.04687110       2.46462327       1.37776939       0.00000000
Si       1.11842254       1.18869760      -3.22170005       0.00000000
Si       0.61836841      -2.79399567       2.21369707       0.00000000
Si      -2.47663388      -2.61306263      -0.42630794       0.00000000
Si      -0.41775705      -0.65034568      -3.65924044       0.00000000
