10
Lattice="16.290000149 0.0 0.0 0.0 16.290000149 0.0 0.0 0.0 29.1751946751" Properties=species:S:1:pos:R:3:initial_magmoms:R:1 pbc="T T T"
Si       0.17865243      -1.38798132      -0.60949899       0.00000000
Si      -0.69530608       1.82824301       1.92306253       0.00000000
Si      -0.51331419       1.28169721      -2.39347462       0.00000000
Si      -2.53389323       0.94656304       0.73659489       0.00000000
Si      -2.45140067       0.25267419      -1.49257378       0.00000000
Si       1.21243213       2.61825914       0.80184230       0.00000000
Si       2.05219793      -0.77799086       2.05634649       0.00000000
Si       1.01327059      -2.63174726       1.10378514       0.00000000
Si       2.91750645       0.94973959       0.67422825       0.00000000
Si       2.07340751      -1.37271433      -1.94904888       0.00000000
