10
Lattice="16.290000149 0.0 0.0 0.0 16.290000149 0.0 0.0 0.0 29.1751946751" Properties=species:S:1:pos:R:3:initial_magmoms:R:1 pbc="T T T"
Si       1.30665349      -1.42544017      -1.30190893       0.00000000
Si       1.41288058       1.29635821       1.34328344       0.00000000
Si      -1.30034926      -1.48354660       1.27374436       0.00000000
Si      -1.27984015       1.49504734      -1.33665658       0.00000000
Si       2.57134394       0.05804127      -2.62797988       0.00000000
Si      -2.68499927      -0.11205891       2.62407157       0.00000000
Si      -2.63749763       0.14771772      -2.67711090       0.00000000
Si       0.03059262       2.65298942       2.66701454       0.00000000
Si      -0.07154568      -2.45402336      -2.93367757       0.00000000
Si      -2.72575685       2.68921838       0.01909925       0.00000000
