10
Lattice="16.290000149 0.0 0.0 0.0 16.290000149 0.0 0.0 0.0 29.1751946751" Properties=species:S:1:pos:R:3:initial_magmoms:R:1 pbc="T T T"
Si       1.35925390       1.36208836      -1.34550163       0.00000000
Si      -1.36557442      -1.35521398      -1.34719379       0.00000000
Si       1.35086455      -1.37593486       1.34337184       0.00000000
Si      -1.37758015       1.36314721       1.33070980       0.00000000
Si       2.72811891      -0.01720224      -2.66783815       0.00000000
Si      -0.02309922       2.69869916      -2.69873468       0.00000000
Si      -0.02788848       2.72290610       2.67942070       0.00000000
Si       0.00350235      -2.71893134      -2.68391368       0.00000000
Si       2.72896599      -0.03650589       2.67764102       0.00000000
Si      -2.71515206      -2.70229925       0.03042973       0.00000000
