10
Lattice="16.290000149 0.0 0.0 0.0 16.290000149 0.0 0.0 0.0 29.1751946751" Properties=species:S:1:pos:R:3:initial_magmoms:R:1 pbc="T T T"
Si       1.29274183       1.43663140       1.31133748       0.00000000
Si      -1.36190917       1.36135531      -1.33654484       0.00000000
Si      -1.30505707      -1.34646788       1.42485816       0.00000000
Si       1.42315957      -1.36543270      -1.29955070       0.00000000
Si       2.52687224       0.04279383       2.68516822       0.00000000
Si      -2.59836905      -2.67734916      -0.02395283       0.00000000
Si       0.01420488       2.69752628      -2.69835541       0.00000000
Si      -2.71702541      -0.00190593      -2.67991668       0.00000000
Si       0.07923456      -2.70366761      -2.69820953       0.00000000
Si      -0.07801281       2.77526217       2.64365192       0.00000000
