10
Lattice="16.290000149 0.0 0.0 0.0 16.290000149 0.0 0.0 0.0 29.1751946751" Properties=species:S:1:pos:R:3:initial_magmoms:R:1 pbc="T T T"
Si      -1.28567197      -1.41201721      -1.31518860       0.00000000
Si       1.42545646      -1.22238532       1.37301384       0.00000000
Si      -1.33480261       1.22706055       1.49744604       0.00000000
Si       1.46970010       1.38885283      -1.21494263       0.00000000
H       -1.50605938       2.88981345      -0.83015099       0.00000000
Si       2.09116361       0.65098099       2.67513195       0.00000000
Si       0.43060986       2.29736243       2.59379151       0.00000000
Si      -2.57362454      -0.03152115      -2.67556958       0.00000000
Si      -2.70295085       2.62624124       0.20615193       0.00000000
Si      -2.59820615      -2.74484874       0.12758313       0.00000000
