10
Lattice="16.290000149 0.0 0.0 0.0 16.290000149 0.0 0.0 0.0 29.1751946751" Properties=species:S:1:pos:R:3:initial_magmoms:R:1 pbc="T T T"
Si       1.76541248       1.07030188       1.09634547       0.00000000
Si      -1.36814824       1.39918069      -1.29129412       0.00000000
Si      -1.32282946      -1.27130419       1.46523663       0.00000000
Si       1.33480261      -1.22706055      -1.49744604       0.00000000
H       -0.17125677       1.66275290      -2.32759703       0.00000000
Si      -2.30058785       0.53932932       2.67918730       0.00000000
Si       3.42596622      -0.57607957       1.17768591       0.00000000
Si       2.76025908      -2.44944587      -0.12443221       0.00000000
H       -3.19512063      -0.83144161      -1.71833144       0.00000000
Si      -2.55296882       0.03474657      -2.76061527       0.00000000
