10
Lattice="16.290000149 0.0 0.0 0.0 16.290000149 0.0 0.0 0.0 29.1751946751" Properties=species:S:1:pos:R:3:initial_magmoms:R:1 pbc="T T T"
Si       1.82118944      -0.88588279       1.14690608       0.00000000
Si      -0.87364900       1.78300568       1.28353351       0.00000000
Si       1.11809674       1.44104599      -1.55226623       0.00000000
Si      -1.02630259      -2.15018228      -0.39351503       0.00000000
H       -1.92689525      -0.58026610      -1.88445500       0.00000000
Si       2.60213204       2.45656460      -0.08221570       0.00000000
Si      -0.04831614      -2.54785865      -2.54533151       0.00000000
Si      -1.95312215       0.61608781       2.98972807       0.00000000
Si       0.99647560       3.24850296       1.44280090       0.00000000
H        3.19925829      -0.62134948      -1.76238598       0.00000000
