10
Lattice="16.290000149 0.0 0.0 0.0 16.290000149 0.0 0.0 0.0 29.1751946751" Properties=species:S:1:pos:R:3:initial_magmoms:R:1 pbc="T T T"
Si       1.38500839      -1.31427721      -1.35871799       0.00000000
Si       1.37052658       1.36153450       1.32717961       0.00000000
Si      -1.35544204       1.37010304      -1.33917061       0.00000000
Si      -1.35584929      -1.35479044       1.35877634       0.00000000
Si       0.00658116      -2.67819005      -2.66346187       0.00000000
Si      -0.00798210       2.70796817       2.64934108       0.00000000
Si       0.02451645       2.68754051      -2.70293591       0.00000000
Si       2.71435385      -2.68100822       0.01683409       0.00000000
Si      -2.73269640       0.01137042       2.67203938       0.00000000
Si      -2.73434169      -2.69044013       0.01412079       0.00000000
