10
Lattice="16.290000149 0.0 0.0 0.0 16.290000149 0.0 0.0 0.0 29.1751946751" Properties=species:S:1:pos:R:3:initial_magmoms:R:1 pbc="T T T"
Si      -1.36125757       1.36868581       1.32998042       0.00000000
Si       1.35531172       1.36304947      -1.35285378       0.00000000
Si      -1.36782244      -1.36849033      -1.33782855       0.00000000
Si       1.36409203      -1.33385779       1.37864465       0.00000000
Si       2.68845275      -2.70163136       0.00067103       0.00000000
Si      -2.70954830       0.01964574       2.68283420       0.00000000
Si      -2.72350883       2.68240916      -0.06298925       0.00000000
Si      -0.00996948      -2.72336222      -2.69272459       0.00000000
Si      -0.00327429       2.69068448       2.72545916       0.00000000
Si       2.72240111       2.70104492       0.01735924       0.00000000
