10
Lattice="16.290000149 0.0 0.0 0.0 16.290000149 0.0 0.0 0.0 29.1751946751" Properties=species:S:1:pos:R:3:initial_magmoms:R:1 pbc="T T T"
Si       1.34611113       1.34791606      -1.36869591       0.00000000
Si       1.35117732      -1.36081774       1.35801779       0.00000000
Si      -1.33037556       1.34957764       1.39083988       0.00000000
Si      -1.36480553      -1.32921514      -1.37896558       0.00000000
Si       2.67760687       2.69408909       0.04440465       0.00000000
Si      -2.70576577      -2.68222997       0.00615597       0.00000000
Si      -2.69920090       2.70699077       0.05093989       0.00000000
Si       2.69423896       0.00151497       2.71927402       0.00000000
Si       2.69824630      -0.02142135      -2.72665534       0.00000000
Si      -2.67760036      -0.00485442       2.74812829       0.00000000
