10
Lattice="16.290000149 0.0 0.0 0.0 16.290000149 0.0 0.0 0.0 29.1751946751" Properties=species:S:1:pos:R:3:initial_magmoms:R:1 pbc="T T T"
Si       1.34306164       1.36233271       1.36125623       0.00000000
Si      -1.35117732       1.36081774      -1.35801779       0.00000000
Si       1.36958176      -1.35288451      -1.35022801       0.00000000
Si      -1.35895742      -1.35135325       1.36347355       0.00000000
Si      -2.68155288       2.71039538       0.03282209       0.00000000
Si       2.70563870       0.00710244       2.69605056       0.00000000
Si       0.00807984      -2.70562241      -2.70363612       0.00000000
Si      -2.71249679      -2.70202232       0.00285917       0.00000000
Si       2.71023248       2.70839171       0.01986831       0.00000000
Si       2.71764443      -2.71125875       0.01814697       0.00000000
