10
Lattice="16.290000149 0.0 0.0 0.0 16.290000149 0.0 0.0 0.0 29.1751946751" Properties=species:S:1:pos:R:3:initial_magmoms:R:1 pbc="T T T"
Si       1.80832034       1.32851304       0.60614384       0.00000000
Si      -0.73262647      -0.34435268       2.26171944       0.00000000
Si      -1.22134276       1.87028587      -0.95146145       0.00000000
Si       1.61398063      -1.52986070      -1.07814014       0.00000000
H        0.70983676      -2.52868206       0.98136602       0.00000000
H       -1.18851841      -2.94391417      -0.26715726       0.00000000
Si      -0.26878500      -2.87300380      -1.47571052       0.00000000
Si       0.47540736       2.87467841       1.76358217       0.00000000
Si      -1.46267911       1.84565539       2.66448300       0.00000000
Si      -1.15691581      -1.45031663      -3.06575863       0.00000000
