10
Lattice="16.290000149 0.0 0.0 0.0 16.290000149 0.0 0.0 0.0 29.1751946751" Properties=species:S:1:pos:R:3:initial_magmoms:R:1 pbc="T T T"
Si       1.37184607       1.35917245      -1.32822991       0.00000000
Si       1.35716878      -1.34141635       1.36569086       0.00000000
Si      -1.31056309       1.37759644       1.37520198       0.00000000
Si      -1.37556019      -1.36050823      -1.34424709       0.00000000
Si      -0.01736514       2.71796046      -2.64347686       0.00000000
Si      -2.66113442       0.01619226       2.71157177       0.00000000
Si      -0.03046230      -2.70203861       2.68064606       0.00000000
Si       2.72082098      -0.02006928      -2.67250618       0.00000000
Si       2.71161713      -2.71005329       0.01642563       0.00000000
Si      -0.02567304      -2.72624555      -2.69750932       0.00000000
