10
Lattice="16.290000149 0.0 0.0 0.0 16.290000149 0.0 0.0 0.0 29.1751946751" Properties=species:S:1:pos:R:3:initial_magmoms:R:1 pbc="T T T"
H       -0.42669701      -1.40332487       0.67070855       0.00000000
Si      -1.69044264       1.13065633      -1.09856278       0.00000000
Si       1.06839595       1.20325272       1.66578692       0.00000000
Si       1.29248934      -1.55358383      -1.18830568       0.00000000
Si      -1.62358848      -1.66689707       1.70701147       0.00000000
Si      -0.27226780       2.46299264      -2.46232808       0.00000000
Si       2.46979534       2.48946389       0.25770449       0.00000000
Si       2.60237965      -0.18821108      -2.53328215       0.00000000
Si       2.42633362      -0.27361336       2.80388208       0.00000000
Si      -0.15614714      -2.90733171      -2.47714908       0.00000000
