10
Lattice="16.290000149 0.0 0.0 0.0 16.290000149 0.0 0.0 0.0 29.1751946751" Properties=species:S:1:pos:R:3:initial_magmoms:R:1 pbc="T T T"
Si      -1.34192134      -1.28332621      -1.43279381       0.00000000
Si       1.34913781       1.39194793      -1.35136584       0.00000000
Si      -1.12977667       1.10739421       1.75678435       0.00000000
Si       1.34260552      -1.41661099       1.37030054       0.00000000
Si       0.73249615       1.93447010       3.01802801       0.00000000
Si       2.41774553       0.26544555       2.75886476       0.00000000
Si      -2.79498936      -0.41212071       2.48575576       0.00000000
Si       0.05106915      -2.63467946      -2.74812829       0.00000000
Si       2.73292445       0.03885165      -2.70845002       0.00000000
Si      -0.05336604      -3.23530806       2.12474190       0.00000000
