10
Lattice="16.290000149 0.0 0.0 0.0 16.290000149 0.0 0.0 0.0 29.1751946751" Properties=species:S:1:pos:R:3:initial_magmoms:R:1 pbc="T T T"
Si      -1.25118604       1.34280100       1.48676325       0.00000000
Si       1.35676153      -1.38564761       1.39927151       0.00000000
Si      -1.44607960      -1.44186049      -1.27574374       0.00000000
Si       1.52274034       1.37332846      -1.28122867       0.00000000
H       -0.64167940       1.15517278      -2.71962412       0.00000000
Si      -0.03517011      -2.62391177      -2.74319768       0.00000000
Si      -2.58732443      -0.06319543       2.83949624       0.00000000
Si      -2.88527017       2.52609032       0.27442188       0.00000000
Si       0.13626585       2.61842204       2.86380210       0.00000000
Si       3.72597915       0.99147457      -0.47643093       0.00000000
