10
Lattice="16.290000149 0.0 0.0 0.0 16.290000149 0.0 0.0 0.0 29.1751946751" Properties=species:S:1:pos:R:3:initial_magmoms:R:1 pbc="T T T"
Si      -1.28058949      -0.03872133      -0.82104833       0.00000000
Si       2.30910752      -0.19979685      -0.91992306       0.00000000
Si       2.16441974       0.21815568       1.43839545       0.00000000
Si       1.44857197       1.87822073      -1.71200042       0.00000000
H        1.29538081       2.67432932      -0.43616916       0.00000000
Si       0.64167940      -1.15517278       2.71962412       0.00000000
Si      -2.64568662      -1.42205511       0.51217054       0.00000000
Si      -0.80440021      -2.59703327       1.44388038       0.00000000
Si      -0.68014009      -1.56276976      -2.57523608       0.00000000
Si      -2.07460645       2.22365018      -0.60456838       0.00000000
