10
Lattice="16.290000149 0.0 0.0 0.0 16.290000149 0.0 0.0 0.0 29.1751946751" Properties=species:S:1:pos:R:3:initial_magmoms:R:1 pbc="T T T"
Si      -1.34695984       1.36115332      -1.35378738       0.00000000
Si       1.35503479       1.36479576       1.34961533       0.00000000
Si      -1.37507801      -1.34833960       1.34984873       0.00000000
Si       1.31737231      -1.37099899      -1.38850586       0.00000000
Si       0.01813077      -2.69907383       2.67384824       0.00000000
Si      -2.66111895      -0.02357163      -2.71673578       0.00000000
Si       2.70441695      -0.01145187      -2.69211191       0.00000000
Si      -0.03008763       2.72235224       2.68271750       0.00000000
Si      -2.69061012      -2.71551044      -0.04207063       0.00000000
Si       2.70117524      -2.71751411      -0.05502442       0.00000000
