10
Lattice="10.86 0.0 0.0 0.0 10.86 0.0 0.0 0.0 10.86" Properties=species:S:1:pos:R:3:initial_magmoms:R:1 pbc="T T T"
Si      -1.38857046       1.38857046       1.29763968       0.00000000
Si       1.32642954       1.38857046      -1.41736032       0.00000000
Si      -1.38857046      -1.32642954      -1.41736032       0.00000000
Si       1.40932392      -1.40932392       1.40871576       0.00000000
Si      -0.03107046       2.74607046       2.65513968       0.00000000
Si      -2.74607046       0.03107046       2.65513968       0.00000000
Si       2.68392954       2.74607046      -0.05986032       0.00000000
Si      -2.74607046      -2.68392954      -0.05986032       0.00000000
Si       2.68392954       0.03107046      -2.77486032       0.00000000
Si      -0.03107046      -2.68392954      -2.77486032       0.00000000
