10
Lattice="16.28999089631971 0.0 0.0 0.0 16.28999089631971 0.0 0.0 0.0 34.24959146834617" Properties=species:S:1:pos:R:3:initial_magmoms:R:1 pbc="T T T"
Si       2.03488164       0.82800441      -0.65125635       0.00000000
Si       0.65143710      -1.71277947       1.45468371       0.00000000
Si      -0.95922036       1.91008136       0.98063485       0.00000000
Si      -0.73963116      -0.66038031      -2.14529286       0.00000000
Si      -2.74932357      -1.55595564      -1.35621608       0.00000000
Si       2.49075729      -2.60682354       0.07308867       0.00000000
Si       1.48010940       2.35895394      -2.33407671       0.00000000
Si       3.15949437      -0.97707420      -1.59983356       0.00000000
Si      -0.33379839       1.29803607      -3.46164239       0.00000000
Si      -1.16185167      -3.26756223       1.49807797       0.00000000
