10
Lattice="16.28999089631971 0.0 0.0 0.0 16.28999089631971 0.0 0.0 0.0 34.24959146834617" Properties=species:S:1:pos:R:3:initial_magmoms:R:1 pbc="T T T"
Si      -1.00755279       1.94030190      -0.84096494       0.00000000
Si      -1.77029946      -1.55141073       0.14778707       0.00000000
Si       1.51576821      -0.41010075      -1.78375397       0.00000000
Si       0.95876424      -0.11951973       2.24215076       0.00000000
Si      -0.41049171      -3.45937698      -0.37986243       0.00000000
Si       2.83830444      -2.03646177      -0.64111846       0.00000000
Si       2.34549936       1.88664264      -2.13923068       0.00000000
Si      -2.50114054      -1.32914997       2.57752295       0.00000000
Si       0.69050052      -2.58483204       2.81381101       0.00000000
Si       0.29872602       2.98262962      -2.48282277       0.00000000
