10
Lattice="16.28999089631971 0.0 0.0 0.0 16.28999089631971 0.0 0.0 0.0 34.24959146834617" Properties=species:S:1:pos:R:3:initial_magmoms:R:1 pbc="T T T"
Si      -0.53111657       0.30201660       2.28287355       0.00000000
Si      -0.41790107       1.85771160      -1.43447644       0.00000000
Si      -1.90692110      -1.25172360      -0.81496948       0.00000000
Si       2.21298998      -0.90126054      -0.49298890       0.00000000
Si       0.62551808       0.81034605      -3.34728294       0.00000000
Si       1.75561565      -1.23571053      -2.76736854       0.00000000
Si      -2.78361632       2.07546003      -1.37128591       0.00000000
Si      -2.09541269      -1.46018673       2.73301618       0.00000000
Si      -1.77550967       2.32590249       2.37308702       0.00000000
Si       1.53938219       0.34547832       3.54031375       0.00000000
