10
Lattice="16.28999089631971 0.0 0.0 0.0 16.28999089631971 0.0 0.0 0.0 34.24959146834617" Properties=species:S:1:pos:R:3:initial_magmoms:R:1 pbc="T T T"
Si       1.35694071      -1.35683157      -1.35727782       0.00000000
Si       1.35694071       1.35754344       1.35741482       0.00000000
Si      -1.35733167       1.35759231      -1.35813406       0.00000000
Si      -1.35809730      -1.35815920       1.35710657       0.00000000
Si      -0.00151497      -2.71410822      -2.71393914       0.00000000
Si      -2.71446786       0.00097740      -2.71383640       0.00000000
Si       2.71438641      -2.71458110       0.00020550       0.00000000
Si      -2.71495656      -2.71506597      -0.00020550       0.00000000
Si       2.71497285       2.71511946      -0.00020550       0.00000000
Si       0.00180819      -2.71742055       2.71397339       0.00000000
