10
Lattice="16.28999089631971 0.0 0.0 0.0 16.28999089631971 0.0 0.0 0.0 34.24959146834617" Properties=species:S:1:pos:R:3:initial_magmoms:R:1 pbc="T T T"
Si       0.01585017       1.52599181      -1.76539618       0.00000000
Si      -1.97565120       0.06403762       1.25521398       0.00000000
Si       1.74834054       0.19094812       1.68693032       0.00000000
Si      -0.55773702      -1.93453265      -1.43290096       0.00000000
Si       1.87007571      -2.17279019       1.71624799       0.00000000
Si      -2.68451055      -1.04869874      -1.98555268       0.00000000
Si      -1.42087896      -1.46691191       2.93803435       0.00000000
Si       2.09166858       0.85348523      -2.87210385       0.00000000
Si      -0.29626623      -3.27199052       1.98945713       0.00000000
Si      -2.31743169       1.15500335      -2.86508268       0.00000000
