10
Lattice="16.28999089631971 0.0 0.0 0.0 16.28999089631971 0.0 0.0 0.0 34.24959146834617" Properties=species:S:1:pos:R:3:initial_magmoms:R:1 pbc="T T T"
Si      -0.66215592      -1.82946474       1.54184897       0.00000000
Si      -1.49310882       1.99431954       0.51984059       0.00000000
Si      -2.31161616       0.54907074      -1.20404506       0.00000000
Si      -0.52698150       0.56474172       2.55070550       0.00000000
Si       1.76112819      -1.84920822       1.08201370       0.00000000
Si       1.07823510       1.19130399      -2.35561972       0.00000000
Si       2.24560908       0.42148746       1.72008394       0.00000000
Si      -1.60376679      -1.57345110      -2.33921415       0.00000000
Si       2.71199178       2.59788033      -0.96320180       0.00000000
Si       4.04112546       1.12011669       0.27796984       0.00000000
