10
Lattice="16.28999089631971 0.0 0.0 0.0 16.28999089631971 0.0 0.0 0.0 34.24959146834617" Properties=species:S:1:pos:R:3:initial_magmoms:R:1 pbc="T T T"
Si      -0.43319997      -2.07565551       0.92525323       0.00000000
Si      -0.16516431       2.10087243       1.05886096       0.00000000
Si       2.37969207       0.19544742      -0.04514099       0.00000000
Si      -0.77349807      -0.21183516      -2.34620108       0.00000000
Si       2.06130402       1.74464271       1.68230662       0.00000000
Si       0.16889472      -3.14403516      -1.10766666       0.00000000
Si      -2.56950315      -1.65827313       1.76354670       0.00000000
Si       2.88499158       0.63622224      -2.36147640       0.00000000
Si       0.01027899       3.72392658      -0.68533471       0.00000000
Si      -3.54608865      -0.06858090      -1.51557952       0.00000000
