10
Lattice="16.28999089631971 0.0 0.0 0.0 16.28999089631971 0.0 0.0 0.0 34.24959146834617" Properties=species:S:1:pos:R:3:initial_magmoms:R:1 pbc="T T T"
Si      -1.25097426      -1.97211627      -0.26351650       0.00000000
Si      -0.40622373       0.91717587       2.14563536       0.00000000
Si       2.09857554      -1.19749419      -0.06712924       0.00000000
Si      -0.34660233       1.86922863      -1.52499816       0.00000000
Si      -1.33736013      -2.11077675      -2.67629882       0.00000000
Si       3.68119791       0.44015580      -0.63187107       0.00000000
Si      -0.43432398      -3.62178828       1.31761677       0.00000000
Si      -2.70578529       1.61948664       2.26550899       0.00000000
Si       1.06697871       1.64836881      -3.38098456       0.00000000
Si      -0.53167302      -0.81520047       3.80523449       0.00000000
