10
Lattice="16.28999089631971 0.0 0.0 0.0 16.28999089631971 0.0 0.0 0.0 34.24959146834617" Properties=species:S:1:pos:R:3:initial_magmoms:R:1 pbc="T T T"
Si       2.13630318      -0.41738238      -0.83829347       0.00000000
Si      -1.27974240      -1.79758521      -0.80462610       0.00000000
Si      -1.27537668       1.84235013      -0.74941573       0.00000000
Si       0.08638587       0.13866048       2.41278232       0.00000000
Si      -0.12764844      -3.20896710       0.77075324       0.00000000
Si      -2.89878921       1.30882005       0.95635188       0.00000000
Si       2.56950315       1.65827313      -1.76354670       0.00000000
Si      -2.64971511       0.06755463      -2.36438762       0.00000000
Si       3.31555257      -1.00374093       1.11455083       0.00000000
Si      -2.15653536       0.29033667       2.94255530       0.00000000
