10
Lattice="16.28999089631971 0.0 0.0 0.0 16.28999089631971 0.0 0.0 0.0 34.24959146834617" Properties=species:S:1:pos:R:3:initial_magmoms:R:1 pbc="T T T"
Si       0.98298747      -1.13691168      -1.82759347       0.00000000
Si       1.23401637       0.95263920       1.79570708       0.00000000
Si      -1.82068443      -1.18250739       1.06351891       0.00000000
Si      -0.81665028       1.64967201      -1.58113327       0.00000000
Si      -3.43367136      -0.51293952      -0.52374505       0.00000000
Si       3.27894894       1.51557273       0.72160505       0.00000000
Si      -3.05957151       1.80134820      -1.05136030       0.00000000
Si       1.17866295      -0.81547740       3.41506292       0.00000000
Si      -0.09734904       2.80658781       2.48761772       0.00000000
Si       2.53289952       2.42429409      -1.38474601       0.00000000
