10
Lattice="16.28999089631971 0.0 0.0 0.0 16.28999089631971 0.0 0.0 0.0 34.24959146834617" Properties=species:S:1:pos:R:3:initial_magmoms:R:1 pbc="T T T"
Si       1.32913368      -1.47776364       1.24117164       0.00000000
Si       1.25252181       1.30318371      -1.53116309       0.00000000
Si      -0.63547290       1.53391527       1.95407728       0.00000000
Si      -1.63375668      -1.40657634      -1.39241792       0.00000000
Si       0.34961598       3.27570723       0.81154452       0.00000000
Si      -0.46638270      -2.17639287       2.68328574       0.00000000
Si       2.45241063       2.64903093      -0.00147273       0.00000000
Si       2.52222957      -0.08946468      -2.91902581       0.00000000
Si      -2.71199178      -2.59788033       0.96320180       0.00000000
Si       2.63510298      -2.87409357      -0.06329328       0.00000000
