10
Lattice="16.28999089631971 0.0 0.0 0.0 16.28999089631971 0.0 0.0 0.0 34.24959146834617" Properties=species:S:1:pos:R:3:initial_magmoms:R:1 pbc="T T T"
Si       0.40622373      -0.91717587      -2.14563536       0.00000000
Si      -0.12544929      -1.73237634       1.65959913       0.00000000
Si      -2.29956156       0.70231077       0.11987364       0.00000000
Si       1.72054980       1.58513103       0.59796395       0.00000000
Si      -3.36204423      -1.45946997       0.08308956       0.00000000
Si       0.30286368      -0.54058365       3.68796382       0.00000000
Si       0.05962140       0.95205276      -3.67063352       0.00000000
Si      -2.51520858       1.74363273       2.26122779       0.00000000
Si       0.73358757       3.16654794       1.99997176       0.00000000
Si      -0.84475053      -2.88929214      -2.40915186       0.00000000
