10
Lattice="16.28999089631971 0.0 0.0 0.0 16.28999089631971 0.0 0.0 0.0 34.24959146834617" Properties=species:S:1:pos:R:3:initial_magmoms:R:1 pbc="T T T"
Si      -1.07168652      -1.65760524      -1.34715162       0.00000000
Si      -1.33007850       1.29624417       1.54741796       0.00000000
Si       0.81661770       1.94756724      -1.29591420       0.00000000
Si       1.40872662      -1.39387014       1.52819365       0.00000000
Si       0.88392798      -3.30009336      -1.46277830       0.00000000
Si      -2.74585869       2.62645299       0.14627324       0.00000000
Si      -2.64179817      -2.73424392       0.23164382       0.00000000
Si       2.90703195       2.67535557      -0.06081018       0.00000000
Si       0.03867246       2.66602140       2.92310494       0.00000000
Si       2.80088631      -2.80792359      -0.01024063       0.00000000
