10
Lattice="16.28999089631971 0.0 0.0 0.0 16.28999089631971 0.0 0.0 0.0 34.24959146834617" Properties=species:S:1:pos:R:3:initial_magmoms:R:1 pbc="T T T"
Si       1.35804843       1.35664749      -1.35638733       0.00000000
Si      -1.35799956      -1.35718506      -1.35638733       0.00000000
Si       1.35744570      -1.35716877       1.35762031       0.00000000
Si      -1.35705474       1.35824391       1.35806556       0.00000000
Si      -2.71370223       0.00122175      -2.71414464       0.00000000
Si      -2.71419093      -2.71507059       0.00061649       0.00000000
Si      -2.71448415       0.00042354       2.71493238       0.00000000
Si      -2.71466334       2.71524978       0.00017125       0.00000000
Si       2.71516833      -2.71516833       0.00003425       0.00000000
Si       0.00094482      -2.71485882       2.71568587       0.00000000
