10
Lattice="16.28999089631971 0.0 0.0 0.0 16.28999089631971 0.0 0.0 0.0 34.24959146834617" Properties=species:S:1:pos:R:3:initial_magmoms:R:1 pbc="T T T"
Si      -0.37813977      -2.03367618      -1.01252124       0.00000000
Si      -1.20054042       0.12854439       2.02620696       0.00000000
Si       2.13315921       0.66795516       0.89350384       0.00000000
Si      -1.41661098       0.51891795      -1.92225940       0.00000000
Si       1.44886518       2.91656227       0.58700408       0.00000000
Si       0.33158295       1.45902413      -3.18548778       0.00000000
Si       1.72465488      -2.66035248      -1.82553850       0.00000000
Si      -3.32731395       1.01437830       1.47355525       0.00000000
Si       2.28763728      -0.48154869       3.08037573       0.00000000
Si       1.25674092       3.31523396      -1.81348263       0.00000000
