10
Lattice="16.28999089631971 0.0 0.0 0.0 16.28999089631971 0.0 0.0 0.0 34.24959146834617" Properties=species:S:1:pos:R:3:initial_magmoms:R:1 pbc="T T T"
Si      -2.21552864      -0.30529089       0.62026045       0.00000000
Si       1.61298693      -0.66956787       1.58726395       0.00000000
Si       0.35212464      -1.68467922      -1.62045183       0.00000000
Si       0.37409985       2.31428772      -0.52761525       0.00000000
Si       3.43367136       0.51293952       0.52374505       0.00000000
Si       2.61702108       2.16261153      -1.05738823       0.00000000
Si      -3.22963001       1.40797728      -0.64950962       0.00000000
Si       0.46299438      -3.65558351      -0.41010484       0.00000000
Si       1.65578076      -3.05244789       1.51003108       0.00000000
Si       2.40298677      -1.18501605      -2.69941731       0.00000000
