10
Lattice="16.28999089631971 0.0 0.0 0.0 16.28999089631971 0.0 0.0 0.0 34.24959146834617" Properties=species:S:1:pos:R:3:initial_magmoms:R:1 pbc="T T T"
Si      -1.51576821       0.41010075       1.78375397       0.00000000
Si       1.32253623      -1.62636102       1.14263551       0.00000000
Si      -0.79917111      -0.83326608      -2.14515586       0.00000000
Si       0.82973115       2.29674339      -0.35547671       0.00000000
Si      -2.52332100       2.35040265       0.94278903       0.00000000
Si       2.90859579      -0.23252346       2.09737765       0.00000000
Si      -1.21704219       3.39273037      -0.69906880       0.00000000
Si       1.98307944       2.10370689      -2.41295357       0.00000000
Si      -1.92625992      -3.04927623       1.40389154       0.00000000
Si       2.30949846      -3.20777793      -0.25937230       0.00000000
