10
Lattice="16.28999089631971 0.0 0.0 0.0 16.28999089631971 0.0 0.0 0.0 34.24959146834617" Properties=species:S:1:pos:R:3:initial_magmoms:R:1 pbc="T T T"
Si      -1.61298693       0.66956787      -1.58726395       0.00000000
Si       0.04279383      -2.38288002      -0.07723287       0.00000000
Si      -0.63827478       0.88524747       2.12854480       0.00000000
Si       1.82068443       1.18250739      -1.06351891       0.00000000
Si      -1.26086229      -1.01511135      -3.20771578       0.00000000
Si      -0.52491267       3.18544434       1.68912230       0.00000000
Si      -1.14999255      -2.98601564      -1.99736879       0.00000000
Si       3.05470080       2.13514659       0.73218818       0.00000000
Si       2.99934738       0.36702999       2.35154401       0.00000000
Si      -1.23888708       2.98385559      -2.11487921       0.00000000
