10
Lattice="16.28999089631971 0.0 0.0 0.0 16.28999089631971 0.0 0.0 0.0 34.24959146834617" Properties=species:S:1:pos:R:3:initial_magmoms:R:1 pbc="T T T"
Si       1.88841825       0.86625333      -1.27244153       0.00000000
Si       0.19212426      -0.39867169       2.40048671       0.00000000
Si      -0.92515797      -1.85620982      -1.37200515       0.00000000
Si      -1.89325638       1.96120197      -0.00780891       0.00000000
Si       0.53789580       2.14860213      -2.91577210       0.00000000
Si      -2.18914794      -0.56103737      -2.92683472       0.00000000
Si      -3.47030757       0.84735693      -1.48345338       0.00000000
Si      -2.67335190      -2.79631601      -0.10877676       0.00000000
Si       0.87641829      -2.64727880       2.70698647       0.00000000
Si      -0.81922410       3.52227267      -1.52852587       0.00000000
