10
Lattice="16.28999089631971 0.0 0.0 0.0 16.28999089631971 0.0 0.0 0.0 34.24959146834617" Properties=species:S:1:pos:R:3:initial_magmoms:R:1 pbc="T T T"
Si      -0.44779581      -1.04371659       2.11193374       0.00000000
Si       0.48439944       2.23572105       0.72229004       0.00000000
Si       2.04836976      -1.19503114      -0.38866458       0.00000000
Si      -1.57835439      -0.22366333      -1.87550868       0.00000000
Si      -2.68338654      -2.13008759      -1.08454817       0.00000000
Si       3.57897816       0.41176233       0.23234936       0.00000000
Si       2.61936684       2.56614741      -0.18833861       0.00000000
Si      -2.70853830      -0.48596491       2.60454589       0.00000000
Si      -0.53740710      -3.37448069       1.65024899       0.00000000
Si      -1.07849574      -3.81444101      -0.62063719       0.00000000
