10
Lattice="16.28999089631971 0.0 0.0 0.0 16.28999089631971 0.0 0.0 0.0 34.24959146834617" Properties=species:S:1:pos:R:3:initial_magmoms:R:1 pbc="T T T"
Si      -1.32944319       1.28925576       1.41029622       0.00000000
Si       1.12824540       1.66477284      -1.19073669       0.00000000
Si       1.40625054      -1.41667614       1.39257889       0.00000000
Si      -1.43472546      -1.16550063      -1.76963084       0.00000000
Si       0.62550342      -0.97849143      -2.81085325       0.00000000
Si      -2.49455286      -2.62844037      -0.11252367       0.00000000
Si      -0.58060818       3.35116251      -1.39894730       0.00000000
Si      -2.61519660       2.60050302      -0.16827861       0.00000000
Si       0.05054787       2.64710871       2.76787543       0.00000000
Si      -2.66395257      -0.06954201       2.77482810       0.00000000
