10
Lattice="16.28999089631971 0.0 0.0 0.0 16.28999089631971 0.0 0.0 0.0 34.24959146834617" Properties=species:S:1:pos:R:3:initial_magmoms:R:1 pbc="T T T"
Si       1.27615860       1.27283544      -1.68997854       0.00000000
Si      -1.31877324      -1.38424275      -1.63925486       0.00000000
Si      -1.10170899       1.76386491       1.45985540       0.00000000
Si       0.65386431      -1.30686525       2.24345224       0.00000000
Si      -2.55658518       2.54078388      -0.44068974       0.00000000
Si      -1.43518158      -1.48387239       3.32758942       0.00000000
Si       2.59682148      -2.92549992      -0.28098381       0.00000000
Si       1.17035505       2.65272876       2.66006451       0.00000000
Si      -3.20719149      -2.25049608      -0.36681333       0.00000000
Si       2.42523891       3.06528930      -0.60919782       0.00000000
