10
Lattice="16.28999089631971 0.0 0.0 0.0 16.28999089631971 0.0 0.0 0.0 34.24959146834617" Properties=species:S:1:pos:R:3:initial_magmoms:R:1 pbc="T T T"
Si       2.06045694      -0.46403694      -1.02539909       0.00000000
Si      -1.68896349      -0.76502727      -1.48170665       0.00000000
Si       0.39785067      -0.78009552       2.21046987       0.00000000
Si      -0.11481192       2.40500673       0.16268565       0.00000000
Si       3.29955579       0.27311814       0.86860437       0.00000000
Si      -1.15448859       0.77367726      -3.19045398       0.00000000
Si      -1.73711673      -1.11052188       3.12109852       0.00000000
Si       0.53113545       2.90766726       2.40278143       0.00000000
Si       2.66633091      -2.73917979      -0.96731175       0.00000000
Si       1.12537836       0.62279928      -3.72759062       0.00000000
