10
Lattice="16.28999089631971 0.0 0.0 0.0 16.28999089631971 0.0 0.0 0.0 34.24959146834617" Properties=species:S:1:pos:R:3:initial_magmoms:R:1 pbc="T T T"
Si       1.28575341      -1.31124726       1.57857483       0.00000000
Si      -1.91695833      -0.49216977      -1.45253767       0.00000000
Si       2.03458842       0.75065949      -1.23066869       0.00000000
Si      -1.39215969       1.41405345       1.53843428       0.00000000
Si      -2.56416003      -2.44652994       0.11045499       0.00000000
Si       2.61519660      -2.60050302       0.16827861       0.00000000
Si       2.78503614       2.69558775       0.03478733       0.00000000
Si       2.66574447       0.04660569       2.93615404       0.00000000
Si      -2.80088631       2.80792359       0.01024063       0.00000000
Si      -0.04875597      -2.67004503       2.94310671       0.00000000
