10
Lattice="16.28999089631971 0.0 0.0 0.0 16.28999089631971 0.0 0.0 0.0 34.24959146834617" Properties=species:S:1:pos:R:3:initial_magmoms:R:1 pbc="T T T"
Si       2.28951063       0.22112046       0.19895599       0.00000000
Si      -1.15554744      -1.37326329       1.45923891       0.00000000
Si      -0.33655140      -0.97195914      -2.10542631       0.00000000
Si      -0.69558300       2.22102747       0.42883937       0.00000000
Si       2.57756670       0.24016347      -2.14864932       0.00000000
Si      -1.70331498      -2.72657133      -1.64052210       0.00000000
Si      -0.07283259      -0.89109558       3.50959185       0.00000000
Si      -2.11670631       2.69301393      -1.35289387       0.00000000
Si      -3.10355451      -0.19254780       1.99644405       0.00000000
Si       2.68899030       2.28004614       1.13992979       0.00000000
