10
Lattice="16.28999089631971 0.0 0.0 0.0 16.28999089631971 0.0 0.0 0.0 34.24959146834617" Properties=species:S:1:pos:R:3:initial_magmoms:R:1 pbc="T T T"
Si      -1.35720135      -1.35873261      -1.35601058       0.00000000
Si       1.35741312      -1.35767376       1.35782581       0.00000000
Si      -1.35765747       1.35716045       1.35820256       0.00000000
Si       1.35830907       1.35937740      -1.35631883       0.00000000
Si      -2.71419093       0.00174303       2.71472689       0.00000000
Si      -0.00161271       2.71291609      -2.71688461       0.00000000
Si       2.71542897       2.71445224       0.00027400       0.00000000
Si      -2.71510317       2.71490999       0.00071924       0.00000000
Si       2.71538010      -2.71494027       0.00065074       0.00000000
Si      -0.00016290       2.71589553       2.71462414       0.00000000
