10
Lattice="16.28999089631971 0.0 0.0 0.0 16.28999089631971 0.0 0.0 0.0 34.24959146834617" Properties=species:S:1:pos:R:3:initial_magmoms:R:1 pbc="T T T"
Si       1.36202319       1.34810857      -1.38502000       0.00000000
Si      -1.35047358      -1.36612827      -1.38591049       0.00000000
Si       1.36998900      -1.37679822       1.38752022       0.00000000
Si      -1.43988939       1.41131072       1.53472505       0.00000000
Si      -2.70387936       2.70648317      -0.02010452       0.00000000
Si      -2.69995347      -2.72262915      -0.00979539       0.00000000
Si       2.71339272       2.71566422      -0.00294547       0.00000000
Si       0.00848709       2.70519300      -2.74925049       0.00000000
Si      -2.70554094      -0.00895950      -2.74914774       0.00000000
Si       2.71456560      -2.74304052      -0.01952228       0.00000000
