10
Lattice="16.28999089631971 0.0 0.0 0.0 16.28999089631971 0.0 0.0 0.0 34.24959146834617" Properties=species:S:1:pos:R:3:initial_magmoms:R:1 pbc="T T T"
Si      -1.60489080       1.68435342      -0.46391098       0.00000000
Si       0.54108864       0.43996032       2.27088618       0.00000000
Si      -0.69959034      -2.30327568      -0.17450177       0.00000000
Si       1.70838117       0.11029959      -1.74210644       0.00000000
Si       2.55379959      -0.78139872       2.22454646       0.00000000
Si       0.28725786       0.58228605      -3.52383969       0.00000000
Si      -2.54782116      -2.14666362      -1.57770831       0.00000000
Si      -2.75823909       1.87738992       1.59356588       0.00000000
Si       1.24841673      -3.48399117      -0.71170691       0.00000000
Si      -1.87908408      -0.51691428      -3.25063054       0.00000000
