10
Lattice="16.28999089631971 0.0 0.0 0.0 16.28999089631971 0.0 0.0 0.0 34.24959146834617" Properties=species:S:1:pos:R:3:initial_magmoms:R:1 pbc="T T T"
Si      -1.35485559       1.35208629      -1.36063428       0.00000000
Si       1.33740900       1.36735002       1.37580686       0.00000000
Si       1.36194174      -1.36316349      -1.35926430       0.00000000
Si      -1.36467846      -1.35187452       1.38570500       0.00000000
Si       0.11222181      -2.65505432       2.67427810       0.00000000
Si       2.57030136      -0.04326624       2.76613555       0.00000000
Si      -2.71093293       2.70747945      -0.00287697       0.00000000
Si       2.71583917       2.70798444      -0.00273997       0.00000000
Si       0.00283446       2.70901071      -2.71709011       0.00000000
Si      -2.71213839      -0.00555489      -2.71691886       0.00000000
