10
Lattice="16.28999089631971 0.0 0.0 0.0 16.28999089631971 0.0 0.0 0.0 34.24959146834617" Properties=species:S:1:pos:R:3:initial_magmoms:R:1 pbc="T T T"
Si      -1.47600432      -1.61893834      -0.81346250       0.00000000
Si      -0.67531824       2.24676730       0.12672356       0.00000000
Si       0.06100605      -0.86295202       2.43987376       0.00000000
Si       1.26763893       0.62813263      -2.39771249       0.00000000
Si       3.05701628      -0.46380693      -1.42416731       0.00000000
Si       2.91104762      -2.19316084       0.27999057       0.00000000
Si      -2.76436413       2.06976016       1.21086073       0.00000000
Si       0.23007996       2.80924471       2.41172058       0.00000000
Si       2.27442609      -1.68447301       2.45350511       0.00000000
Si      -1.00229112      -3.63485842       0.25543360       0.00000000
