10
Lattice="16.28999089631971 0.0 0.0 0.0 16.28999089631971 0.0 0.0 0.0 34.24959146834617" Properties=species:S:1:pos:R:3:initial_magmoms:R:1 pbc="T T T"
Si       0.54167508      -0.56213532       2.21882677       0.00000000
Si      -0.60587397       2.27514285      -0.05808734       0.00000000
Si      -1.80675648      -1.18547054      -1.04379113       0.00000000
Si       2.32910415      -0.27134253      -0.61430102       0.00000000
Si      -0.88316235       1.09183725      -2.87193260       0.00000000
Si       0.63322488       3.01229793       1.83591613       0.00000000
Si       2.73705136       1.88406882      -1.41704339       0.00000000
Si      -2.43757044      -2.70483137       0.81048279       0.00000000
Si       1.64732625       1.29902976       3.10568619       0.00000000
Si      -1.30886892      -0.19530081       3.59846959       0.00000000
