10
Lattice="16.28999089631971 0.0 0.0 0.0 16.28999089631971 0.0 0.0 0.0 34.24959146834617" Properties=species:S:1:pos:R:3:initial_magmoms:R:1 pbc="T T T"
Si       0.75452022      -1.39488894      -1.79998829       0.00000000
Si       1.80675648       1.18547054       1.04379113       0.00000000
Si      -2.11618503       1.02156056      -0.61145830       0.00000000
Si      -0.63081396      -1.51936083       1.85427392       0.00000000
Si       0.92359413       2.27730779      -1.82814147       0.00000000
Si       1.20088251       3.46061339       0.98570379       0.00000000
Si      -0.46261971      -3.42175590      -1.68158738       0.00000000
Si      -2.07084996       1.53782324      -3.02900131       0.00000000
Si      -3.99406365      -0.29000924       0.23611682       0.00000000
Si       2.34843156       0.62333522       3.26261791       0.00000000
