10
Lattice="16.28999089631971 0.0 0.0 0.0 16.28999089631971 0.0 0.0 0.0 34.24959146834617" Properties=species:S:1:pos:R:3:initial_magmoms:R:1 pbc="T T T"
Si      -0.52610184       2.22620769       0.15220527       0.00000000
Si       1.61500104      -0.35305317       1.61599938       0.00000000
Si      -1.80815742      -1.44480897       0.45740355       0.00000000
Si       0.52939242      -0.07617204      -2.30534129       0.00000000
Si      -0.32661450      -3.13884842       1.17623438       0.00000000
Si      -2.42680275      -1.57050261      -1.81255789       0.00000000
Si       0.36608517       0.57738276       3.51609927       0.00000000
Si      -2.65650804       2.31927246      -0.78572032       0.00000000
Si       1.97117538      -2.63892298       1.84824599       0.00000000
Si      -0.57625875      -1.93733712      -3.19220071       0.00000000
