10
Lattice="16.28999089631971 0.0 0.0 0.0 16.28999089631971 0.0 0.0 0.0 34.24959146834617" Properties=species:S:1:pos:R:3:initial_magmoms:R:1 pbc="T T T"
Si      -2.06045694       0.46403694       1.02539909       0.00000000
Si       0.60587397      -2.27514285       0.05808734       0.00000000
Si       1.23909885       0.73715508       1.89400347       0.00000000
Si       2.20524246       1.31349528      -0.26711271       0.00000000
Si       0.63975717       2.51841771      -1.60055280       0.00000000
Si      -0.93507858       1.08683622      -2.70219153       0.00000000
Si      -0.27728838      -1.18330560      -2.81384526       0.00000000
Si       3.34292533      -0.39107403      -1.35895605       0.00000000
Si      -1.66260627      -0.31605858       3.23586896       0.00000000
Si      -3.74942043      -0.30099033      -0.45630756       0.00000000
