10
Lattice="16.28999089631971 0.0 0.0 0.0 16.28999089631971 0.0 0.0 0.0 34.24959146834617" Properties=species:S:1:pos:R:3:initial_magmoms:R:1 pbc="T T T"
Si       1.35780408      -1.35451350      -1.36039453       0.00000000
Si      -1.35962856       1.36058967      -1.36022329       0.00000000
Si      -1.35164646      -1.37531583       1.36364825       0.00000000
Si       1.35223290       1.39302306       1.35768881       0.00000000
Si       2.69720046       0.01392795       2.65903702       0.00000000
Si      -2.64753225      -0.03099987       2.76284759       0.00000000
Si       2.71248343      -2.71329498      -0.00342496       0.00000000
Si      -2.71428867      -2.71379997      -0.00356196       0.00000000
Si      -0.00052128      -2.71226871      -2.71777510       0.00000000
Si      -2.71371852       2.71645524      -0.00363046       0.00000000
