10
Lattice="16.28999089631971 0.0 0.0 0.0 16.28999089631971 0.0 0.0 0.0 34.24959146834617" Properties=species:S:1:pos:R:3:initial_magmoms:R:1 pbc="T T T"
Si      -1.35596331      -1.35811359      -1.35614758       0.00000000
Si       1.35632062       1.35782905      -1.35690107       0.00000000
Si      -1.35689184       1.35725166       1.35710657       0.00000000
Si       1.35811967      -1.35751086       1.35696957       0.00000000
Si      -0.00109143      -2.71419093      -2.71239791       0.00000000
Si       2.71399938       0.00112401       2.71284316       0.00000000
Si      -2.71437012       2.71468030      -0.00058224       0.00000000
Si      -2.71441899      -2.71471221      -0.00020550       0.00000000
Si      -2.71459818      -0.00034209       2.71469264       0.00000000
Si       0.00086337       2.71626043      -2.71373365       0.00000000
