10
Lattice="16.28999089631971 0.0 0.0 0.0 16.28999089631971 0.0 0.0 0.0 34.24959146834617" Properties=species:S:1:pos:R:3:initial_magmoms:R:1 pbc="T T T"
Si      -0.47371320       2.01592008      -1.06889610       0.00000000
Si      -1.86186555      -1.41630147      -0.53412268       0.00000000
Si      -0.15384276       0.74503944       2.30284107       0.00000000
Si       2.32626087      -0.44066079      -0.69187638       0.00000000
Si       0.16545753       1.34817669      -3.20768153       0.00000000
Si      -2.50318656       1.14121224       2.15488275       0.00000000
Si      -2.65766463       2.29071609      -0.03198914       0.00000000
Si       1.90184121      -0.35813565      -3.00800630       0.00000000
Si      -2.96528499      -1.12956489       1.75419656       0.00000000
Si      -0.75163689      -3.48259023      -0.78715880       0.00000000
