10
Lattice="16.28999089631971 0.0 0.0 0.0 16.28999089631971 0.0 0.0 0.0 34.24959146834617" Properties=species:S:1:pos:R:3:initial_magmoms:R:1 pbc="T T T"
Si      -1.65387483      -1.38232053       1.02598134       0.00000000
Si       1.89338670      -0.18116109       1.51479178       0.00000000
Si       0.88528005      -0.43160355      -2.22958115       0.00000000
Si      -1.08080892       2.01848805      -0.96659251       0.00000000
Si      -0.67890204       1.11575097      -3.13356537       0.00000000
Si       0.44979948       3.62528153      -0.34557857       0.00000000
Si      -3.66658578      -0.16096149       1.07232106       0.00000000
Si      -2.49929325      -0.49062222      -2.94067157       0.00000000
Si      -1.34034120      -1.68857253       3.35858532       0.00000000
Si       1.20251151       0.38301048       3.82153730       0.00000000
