10
Lattice="16.28999089631971 0.0 0.0 0.0 16.28999089631971 0.0 0.0 0.0 34.24959146834617" Properties=species:S:1:pos:R:3:initial_magmoms:R:1 pbc="T T T"
Si      -0.57524130      -2.22643575       0.08264431       0.00000000
Si      -1.76076234       0.73259388      -1.35847656       0.00000000
Si       2.01696101       0.80239653      -1.07807499       0.00000000
Si       0.29780075      -1.70636121       2.41127534       0.00000000
Si       1.27791629       2.93439915      -1.55017163       0.00000000
Si      -1.46742831      -0.57761082      -3.28124969       0.00000000
Si      -0.81341739       2.55119319      -2.54395833       0.00000000
Si       0.67367458      -3.15687168      -1.81745559       0.00000000
Si       2.34678464       1.83519882       2.29006596       0.00000000
Si       1.00553120       0.27592002       3.72497193       0.00000000
