10
Lattice="16.28999089631971 0.0 0.0 0.0 16.28999089631971 0.0 0.0 0.0 34.24959146834617" Properties=species:S:1:pos:R:3:initial_magmoms:R:1 pbc="T T T"
Si      -0.45737433      -0.33444999      -2.27437964       0.00000000
Si       0.90184698      -1.70254935       1.36429899       0.00000000
Si       1.81328877       1.55478276      -0.04339426       0.00000000
Si      -2.21298998       0.90126054       0.49298890       0.00000000
Si       0.68619996      -0.66122739       3.50565314       0.00000000
Si      -1.58747190       1.71160659      -2.85429405       0.00000000
Si       1.16185167       3.26756223      -1.49807797       0.00000000
Si      -1.79133962      -2.15490636      -2.66814742       0.00000000
Si      -2.63089106       2.75897214      -0.94148755       0.00000000
Si       3.65260896       0.66073869      -1.42498930       0.00000000
