10
Lattice="16.28999089631971 0.0 0.0 0.0 16.28999089631971 0.0 0.0 0.0 34.24959146834617" Properties=species:S:1:pos:R:3:initial_magmoms:R:1 pbc="T T T"
Si      -1.34197592       1.33892397      -1.37075847       0.00000000
Si      -1.35787496      -1.34195391       1.36106925       0.00000000
Si       1.35826166       1.37282346       1.35428783       0.00000000
Si       1.31009865      -1.32002757      -1.46648955       0.00000000
Si       0.44066388       2.26056330      -2.64506969       0.00000000
Si       2.22917393       0.47781828      -2.88620582       0.00000000
Si       2.70694334      -2.68265349      -0.01196339       0.00000000
Si      -2.69886776      -2.69423568      -0.01176132       0.00000000
Si       0.00048571      -2.69892720       2.71642909       0.00000000
Si      -2.71274684       0.01412343       2.71731958       0.00000000
