10
Lattice="16.28999089631971 0.0 0.0 0.0 16.28999089631971 0.0 0.0 0.0 34.24959146834617" Properties=species:S:1:pos:R:3:initial_magmoms:R:1 pbc="T T T"
Si      -1.19912400      -1.24339941      -1.57294903       0.00000000
Si      -1.31009865       1.32002757       1.46648955       0.00000000
Si       1.39684469      -1.36262592       1.45452616       0.00000000
Si       0.91907528       1.79784585      -1.41971627       0.00000000
Si      -0.25167724       0.62507988      -3.51688843       0.00000000
Si       0.53987666      -2.10693231      -2.90186817       0.00000000
Si      -2.57751524      -2.61223182       0.00527786       0.00000000
Si      -2.65207457       2.65895154       0.09573109       0.00000000
Si       2.69403368       2.65166991       0.04034947       0.00000000
Si      -0.86943477       3.58059087      -1.17858013       0.00000000
