10
Lattice="16.28999089631971 0.0 0.0 0.0 16.28999089631971 0.0 0.0 0.0 34.24959146834617" Properties=species:S:1:pos:R:3:initial_magmoms:R:1 pbc="T T T"
Si      -1.35872458       1.35724261       1.36227826       0.00000000
Si       1.35804843      -1.35953082       1.36114802       0.00000000
Si       1.37327958       1.35423657      -1.35626403       0.00000000
Si      -1.35826166      -1.37282346      -1.35428783       0.00000000
Si       0.02276365       2.64820407      -2.76338873       0.00000000
Si      -2.70023759      -0.03389949      -2.72504629       0.00000000
Si       2.64587067      -0.04118112      -2.78042791       0.00000000
Si       2.71551042       2.71361982       0.00092474       0.00000000
Si      -2.71418183       2.71567399       0.00544569       0.00000000
Si       2.71619460      -2.71451673       0.00455520       0.00000000
