10
Lattice="16.28999089631971 0.0 0.0 0.0 16.28999089631971 0.0 0.0 0.0 34.24959146834617" Properties=species:S:1:pos:R:3:initial_magmoms:R:1 pbc="T T T"
Si       1.34951736       1.34993275      -1.37851258       0.00000000
Si      -1.35950054      -1.37079969      -1.38145804       0.00000000
Si       1.60364136      -1.22796073       1.34765368       0.00000000
Si      -1.51029707       1.31189560       1.38731473       0.00000000
Si       0.11843970      -2.58049305       2.54015662       0.00000000
Si       2.70675129       2.71428541       0.00534294       0.00000000
Si      -2.69791952      -2.72638629      -0.03678408       0.00000000
Si      -0.00313420       2.70770425      -2.73832487       0.00000000
Si       2.70983010      -0.00949707      -2.73894136       0.00000000
Si      -2.71865669      -0.00800165      -2.73808512       0.00000000
