10
Lattice="16.28999089631971 0.0 0.0 0.0 16.28999089631971 0.0 0.0 0.0 34.24959146834617" Properties=species:S:1:pos:R:3:initial_magmoms:R:1 pbc="T T T"
Si       2.17541547       0.85991652      -0.31828163       0.00000000
Si      -1.40923161      -0.35820081      -1.86941225       0.00000000
Si      -0.95755878       1.76018337       1.28072994       0.00000000
Si      -0.10104687      -2.05187211       1.25411799       0.00000000
Si      -1.83715362      -1.18144854       2.64972112       0.00000000
Si      -1.43765766       1.88224434      -2.48991244       0.00000000
Si      -2.96725119       0.86460804       2.06980672       0.00000000
Si       3.47027499      -0.89761158      -1.10228947       0.00000000
Si       2.94156675       1.44348948       1.82618924       0.00000000
Si      -0.55172601       3.71859975      -0.03561960       0.00000000
