10
Lattice="10.86 0.0 0.0 0.0 10.86 0.0 0.0 0.0 10.86" Properties=species:S:1:pos:R:3:initial_magmoms:R:1 pbc="T T T"
Si      -1.17859236      -0.48711444      -1.64804844       0.00000000
Si      -0.96367296       2.26183392       0.79331214       0.00000000
Si       0.56286294      -1.48797204       2.08898616       0.00000000
Si       1.39187190       2.12481330      -1.20486270       0.00000000
Si      -2.38955838      -1.79558154      -0.35949858       0.00000000
Si      -1.21699332      -2.96563794       0.90489864       0.00000000
Si      -2.38955838       0.91941846       2.35550142       0.00000000
Si       0.32544162      -1.79558154      -3.07449858       0.00000000
Si      -3.74705838      -0.43808154       0.99800142       0.00000000
Si       1.78997778      -3.09060396      -1.61125476       0.00000000
