10
Lattice="10.86 0.0 0.0 0.0 10.86 0.0 0.0 0.0 10.86" Properties=species:S:1:pos:R:3:initial_magmoms:R:1 pbc="T T T"
Si      -1.22715828       1.36216980      -1.39739964       0.00000000
Si       1.48784172       1.36216980       1.31760036       0.00000000
Si       1.48784172      -1.35283020      -1.39739964       0.00000000
Si      -3.37956684       0.72526338       1.22739720       0.00000000
Si      -2.58465828       0.00466980      -2.75489964       0.00000000
Si      -2.62095240      -2.73733902       0.03201528       0.00000000
Si       0.13034172      -2.71033020      -2.75489964       0.00000000
Si       0.13034172       2.71966980      -2.75489964       0.00000000
Si      -2.93924814       2.52781704       0.10000974       0.00000000
Si       2.84534172       0.00466980       2.67510036       0.00000000
