10
Lattice="10.86 0.0 0.0 0.0 10.86 0.0 0.0 0.0 10.86" Properties=species:S:1:pos:R:3:initial_magmoms:R:1 pbc="T T T"
Si       1.41603540      -1.33196814      -1.20281016       0.00000000
Si      -1.53616872       0.86726874      -1.52762190       0.00000000
Si      -1.29896460      -1.33196814       1.51218984       0.00000000
Si       1.41603540       1.38303186       1.51218984       0.00000000
Si      -2.47367994       2.50583640       0.21986070       0.00000000
Si       2.58602664       0.26241018      -2.62073520       0.00000000
Si       0.05853540      -2.68946814      -2.56031016       0.00000000
Si      -0.12991818       1.47572196      -3.41836962       0.00000000
Si      -2.65646460      -2.68946814       0.15468984       0.00000000
Si       2.77353540      -2.68946814       0.15468984       0.00000000
