10
Lattice="10.86 0.0 0.0 0.0 10.86 0.0 0.0 0.0 10.86" Properties=species:S:1:pos:R:3:initial_magmoms:R:1 pbc="T T T"
Si       1.43442138      -1.22848320      -1.20527538       0.00000000
Si      -1.28057862       1.48651680      -1.20527538       0.00000000
Si      -1.28057862      -1.22848320       1.50972462       0.00000000
Si      -0.11153220       1.57920690       2.00916516       0.00000000
Si       0.07692138      -2.58598320      -2.56277538       0.00000000
Si      -2.63807862       0.12901680      -2.56277538       0.00000000
Si      -2.63807862      -2.58598320       0.15222462       0.00000000
Si       2.79192138       0.12901680      -2.56277538       0.00000000
Si       2.79192138      -2.58598320       0.15222462       0.00000000
Si       0.07692138       2.84401680      -2.56277538       0.00000000
