10
Lattice="10.86 0.0 0.0 0.0 10.86 0.0 0.0 0.0 10.86" Properties=species:S:1:pos:R:3:initial_magmoms:R:1 pbc="T T T"
Si       1.24668456       1.46831544      -1.18155714       0.00000000
Si      -1.46831544      -1.24668456      -1.18155714       0.00000000
Si       1.18011276      -1.18011276       1.56785820       0.00000000
Si      -1.46831544       1.46831544       1.53344286       0.00000000
Si       2.52369024      -2.52369024       0.06279252       0.00000000
Si       2.60418456       0.11081544      -2.53905714       0.00000000
Si      -0.11081544      -2.60418456      -2.53905714       0.00000000
Si      -0.11081544       2.82581544      -2.53905714       0.00000000
Si      -2.82581544       0.11081544      -2.53905714       0.00000000
Si       2.60418456       2.82581544       0.17594286       0.00000000
