10
Lattice="10.86 0.0 0.0 0.0 10.86 0.0 0.0 0.0 10.86" Properties=species:S:1:pos:R:3:initial_magmoms:R:1 pbc="T T T"
Si      -1.18011276       1.18011276      -1.56785820       0.00000000
Si       1.34357748      -1.34357748      -1.50506568       0.00000000
Si      -2.64842820       2.64842820      -0.03441534       0.00000000
Si       0.06657180       2.64842820       2.68058466       0.00000000
Si      -2.64842820      -0.06657180       2.68058466       0.00000000
Si       0.06657180       2.64842820      -2.74941534       0.00000000
Si      -2.64842820      -0.06657180      -2.74941534       0.00000000
Si       2.78157180       2.64842820      -0.03441534       0.00000000
Si      -2.64842820      -2.78157180      -0.03441534       0.00000000
Si       2.78157180      -0.06657180       2.68058466       0.00000000
