10
Lattice="16.2900001489832 0.0 0.0 0.0 16.2900001489832 0.0 0.0 0.0 29.06537292656838" Properties=species:S:1:pos:R:3:initial_magmoms:R:1 pbc="T T T"
Si       1.35501850       1.36435886      -1.34139603       0.00000000
Si       1.36287028      -1.35044101       1.34889489       0.00000000
Si      -1.35071794       1.34720028       1.36447393       0.00000000
Si      -1.34724817      -1.35741313      -1.36092796       0.00000000
Si       2.70409115      -0.00731421      -2.67892636       0.00000000
Si       0.00720018      -2.71824716       2.68503009       0.00000000
Si      -2.70674154       0.01009980      -2.69761539       0.00000000
Si      -2.70770916       2.70264134       0.02328136       0.00000000
Si      -2.70740617      -2.70466130      -0.00209271       0.00000000
Si       2.71982729       0.00312768       2.69372063       0.00000000
