10
Lattice="16.2900001489832 0.0 0.0 0.0 16.2900001489832 0.0 0.0 0.0 29.06537292656838" Properties=species:S:1:pos:R:3:initial_magmoms:R:1 pbc="T T T"
H        1.09354771      -1.05316480      -0.05339309       0.00000000
Si      -0.62638309      -0.16526205       2.22539028       0.00000000
Si      -1.55310490      -1.06082110      -1.37426896       0.00000000
Si       1.16908444       1.81943826      -0.87774520       0.00000000
H       -2.97584094       0.19562661       0.67983907       0.00000000
Si       3.14483340       0.54776754      -1.01478843       0.00000000
Si      -0.16697250      -2.46628973      -2.63457260       0.00000000
Si      -2.36196857      -1.81731242       2.18908763       0.00000000
Si       1.20959767      -1.11420343       3.35498693       0.00000000
Si      -2.95533183      -2.34077528       0.00697569       0.00000000
