10
Lattice="16.2900001489832 0.0 0.0 0.0 16.2900001489832 0.0 0.0 0.0 29.06537292656838" Properties=species:S:1:pos:R:3:initial_magmoms:R:1 pbc="T T T"
Si      -1.34873056       1.36365220      -1.34377939       0.00000000
Si       1.35774545       1.35674524       1.34282023       0.00000000
Si       1.36983100      -1.35142982      -1.34549424       0.00000000
Si      -1.41905449      -1.31554294       1.33267641       0.00000000
Si      -0.09749565      -2.72645324       2.62573672       0.00000000
Si       2.71461449      -0.01045818       2.67093338       0.00000000
Si      -2.70096347       0.00724905      -2.69058157       0.00000000
Si       0.01122381      -2.70978418      -2.68700653       0.00000000
Si       0.00904095       2.71466336      -2.69369157       0.00000000
Si       0.00778662       2.68527620       2.72566348       0.00000000
