10
Lattice="16.2900001489832 0.0 0.0 0.0 16.2900001489832 0.0 0.0 0.0 29.06537292656838" Properties=species:S:1:pos:R:3:initial_magmoms:R:1 pbc="T T T"
Si       1.34907265      -1.37167307      -1.33753033       0.00000000
Si      -1.35501850      -1.36435886       1.34139603       0.00000000
Si       1.36570474       1.35372214       1.34209359       0.00000000
Si      -1.34838847       1.36463156      -1.35014470       0.00000000
Si       2.72947097      -0.02145390      -2.65465096       0.00000000
Si      -2.70615998       2.69033620       0.02046202       0.00000000
Si       0.01040931       2.70263515       2.69906866       0.00000000
Si       2.71994132      -0.00804905       2.68299551       0.00000000
Si       0.00785178      -2.71479987       2.69029092       0.00000000
Si      -2.71192664       0.01947355      -2.69680156       0.00000000
