10
Lattice="16.2900001489832 0.0 0.0 0.0 16.2900001489832 0.0 0.0 0.0 29.06537292656838" Properties=species:S:1:pos:R:3:initial_magmoms:R:1 pbc="T T T"
Si      -1.35193969       1.36889758      -1.33683276       0.00000000
Si       1.35244468       1.36161595       1.34622088       0.00000000
Si      -1.36544410      -1.35844266       1.33933238       0.00000000
Si       1.36516717      -1.36009772      -1.33895453       0.00000000
Si      -2.70684416       0.02103039      -2.68097547       0.00000000
Si      -0.00167787      -2.73361870      -2.65741217       0.00000000
Si       2.73579150       0.01441665      -2.65700525       0.00000000
Si       2.70653465      -0.00296478       2.68712279       0.00000000
Si      -0.01120752      -2.72021386       2.68023430       0.00000000
Si       0.00073305       2.71956665      -2.68988400       0.00000000
