10
Lattice="16.2900001489832 0.0 0.0 0.0 16.2900001489832 0.0 0.0 0.0 29.06537292656838" Properties=species:S:1:pos:R:3:initial_magmoms:R:1 pbc="T T T"
Si       1.35736426      -1.36104580       1.33883827       0.00000000
Si      -1.36477621       1.35544204       1.33915799       0.00000000
Si       1.36119241       1.36106209      -1.33825697       0.00000000
Si      -1.35744571      -1.36081774      -1.34252958       0.00000000
Si      -2.71213841       2.68988627      -0.03586667       0.00000000
Si      -2.71238276      -0.00765630      -2.69374970       0.00000000
Si      -0.01479132       2.70876638       2.69744100       0.00000000
Si       0.01181025       2.72319932      -2.68465224       0.00000000
Si       0.00812871      -2.72460678       2.68334429       0.00000000
Si       2.71573850       0.01032786      -2.69261615       0.00000000
