10
Lattice="16.2900001489832 0.0 0.0 0.0 16.2900001489832 0.0 0.0 0.0 29.06537292656838" Properties=species:S:1:pos:R:3:initial_magmoms:R:1 pbc="T T T"
Si       1.35685927       1.35763305      -1.34892396       0.00000000
Si      -1.35928648      -1.36216069      -1.34212266       0.00000000
Si       1.35283564      -1.36581030       1.34555237       0.00000000
Si      -1.36879984       1.35675339       1.33994276       0.00000000
Si       2.72243369      -0.00615599       2.67694991       0.00000000
Si      -2.71627770      -0.00671962      -2.68331523       0.00000000
Si      -0.01510083       2.72561839       2.67764748       0.00000000
Si       0.00192222       2.71079449      -2.70014408       0.00000000
Si      -2.73182814      -0.00161597       2.68319897       0.00000000
Si      -0.00856854      -2.70936097      -2.70659659       0.00000000
