10
Lattice="16.2900001489832 0.0 0.0 0.0 16.2900001489832 0.0 0.0 0.0 29.06537292656838" Properties=species:S:1:pos:R:3:initial_magmoms:R:1 pbc="T T T"
Si      -1.35267274      -1.35066907       1.35305124       0.00000000
Si      -1.35319402       1.41672502      -1.28677347       0.00000000
Si       1.39004200      -1.35192340      -1.31819314       0.00000000
Si       1.35379675       1.37039626       1.33680370       0.00000000
H       -1.02231154      -1.61945407      -3.12911992       0.00000000
Si       0.06885783      -2.77783599      -2.58490017       0.00000000
Si       2.70449840       0.01127268       2.69529016       0.00000000
Si      -2.70757721      -2.69853626       0.00890854       0.00000000
Si      -0.00073305      -2.71956665       2.68988400       0.00000000
Si      -2.70920621      -0.00646713       2.70967752       0.00000000
