10
Lattice="16.2900001489832 0.0 0.0 0.0 16.2900001489832 0.0 0.0 0.0 29.06537292656838" Properties=species:S:1:pos:R:3:initial_magmoms:R:1 pbc="T T T"
Si      -1.34938216       1.36213723      -1.34639527       0.00000000
Si       1.35506737       1.35523027       1.34906928       0.00000000
Si       1.35454609      -1.35073423      -1.35435918       0.00000000
Si      -1.36119241      -1.36106209       1.33825697       0.00000000
Si      -2.70637175       0.00074934      -2.68078654       0.00000000
Si      -0.00382815      -2.72210789       2.67709524       0.00000000
Si      -0.01350441       2.70746318       2.69206391       0.00000000
Si       2.70827768      -0.00905724       2.69342998       0.00000000
Si       2.70733286       0.01848915      -2.69517390       0.00000000
Si      -2.72596862      -0.00562005       2.67741496       0.00000000
