10
Lattice="16.2900001489832 0.0 0.0 0.0 16.2900001489832 0.0 0.0 0.0 29.06537292656838" Properties=species:S:1:pos:R:3:initial_magmoms:R:1 pbc="T T T"
Si      -1.60433695       0.46739268       1.55921193       0.00000000
Si       1.39978342      -1.22380255       1.39301613       0.00000000
Si       1.24419763       1.54489474      -1.22155949       0.00000000
Si      -1.49635054      -1.28267461      -1.26725026       0.00000000
H       -1.83583415      -0.93077803       2.11104710       0.00000000
H       -2.96908059       0.70038856       0.91433850       0.00000000
Si       2.44612271       0.18039546      -2.71749611       0.00000000
Si       2.65917962      -2.54554058      -0.03048958       0.00000000
Si      -0.18761193      -2.59921613      -2.69223830       0.00000000
Si      -2.88842880       0.11766267      -2.51900868       0.00000000
