10
Lattice="16.2900001489832 0.0 0.0 0.0 16.2900001489832 0.0 0.0 0.0 29.06537292656838" Properties=species:S:1:pos:R:3:initial_magmoms:R:1 pbc="T T T"
Si      -1.39587382      -1.36767583      -1.30246557       0.00000000
Si      -1.37077093       1.33032286       1.36689217       0.00000000
Si       1.34949619      -1.36236529       1.36336945       0.00000000
Si       1.34078104       1.35765748      -1.38575850       0.00000000
Si      -2.68457573       0.05952366      -2.66091455       0.00000000
Si       2.67828779       2.67072923       0.04385093       0.00000000
Si       2.68846904      -2.72230337      -0.00470568       0.00000000
Si      -0.02393001       2.67250484       2.74602958       0.00000000
Si       2.69001659      -0.02581965      -2.73331639       0.00000000
Si      -2.71485884      -0.03833037       2.71490057       0.00000000
