10
Lattice="16.2900001489832 0.0 0.0 0.0 16.2900001489832 0.0 0.0 0.0 29.06537292656838" Properties=species:S:1:pos:R:3:initial_magmoms:R:1 pbc="T T T"
Si       1.40877550      -1.32519151      -1.30590721       0.00000000
Si       1.36637263       1.34330599       1.33941958       0.00000000
Si      -1.34703640      -1.37544616       1.33837323       0.00000000
Si      -1.34820928       1.32880789      -1.38487782       0.00000000
Si       0.05822046      -2.67975389      -2.61282589       0.00000000
Si       0.00149868       2.69651630       2.67407244       0.00000000
Si      -2.71927343      -0.02371824       2.67006142       0.00000000
Si       2.71966439      -0.02673189       2.67610702       0.00000000
Si      -2.70861977       2.68954418      -0.03575041       0.00000000
Si       2.71790507       2.68654682      -0.02322323       0.00000000
