10
Lattice="16.2900001489832 0.0 0.0 0.0 16.2900001489832 0.0 0.0 0.0 29.06537292656838" Properties=species:S:1:pos:R:3:initial_magmoms:R:1 pbc="T T T"
Si      -1.34408791      -1.36865323       1.34800840       0.00000000
Si       1.37077093      -1.33032286      -1.36689217       0.00000000
Si       1.34684092       1.34218198       1.37913741       0.00000000
Si      -1.36788760       1.37192752      -1.32901418       0.00000000
Si       0.04989627       2.70690753      -2.62371813       0.00000000
Si      -0.02510289      -2.69799869      -2.66935775       0.00000000
Si      -2.70449840      -0.00791694       2.69713581       0.00000000
Si       2.72026712      -2.69268815      -0.00352272       0.00000000
Si       2.72723924       2.69240116       0.06201679       0.00000000
Si       0.00412137      -2.69746112       2.73288622       0.00000000
