10
Lattice="16.2900001489832 0.0 0.0 0.0 16.2900001489832 0.0 0.0 0.0 29.06537292656838" Properties=species:S:1:pos:R:3:initial_magmoms:R:1 pbc="T T T"
Si       1.36487395      -1.35321031      -1.33465286       0.00000000
Si       1.35695701       1.35356869       1.34482574       0.00000000
Si      -1.35567010      -1.36780615       1.33613519       0.00000000
Si      -1.36287028       1.35044101      -1.34889489       0.00000000
Si      -0.00149868      -2.69651630      -2.67407244       0.00000000
Si      -0.00146610       2.69399168       2.70325407       0.00000000
Si      -0.00785178       2.71479987      -2.69029092       0.00000000
Si      -2.72155403      -0.02774187       2.68354775       0.00000000
Si       2.73758339      -0.00052128       2.66849189       0.00000000
Si      -2.71358822       2.69764129       0.01557904       0.00000000
