10
Lattice="16.2900001489832 0.0 0.0 0.0 16.2900001489832 0.0 0.0 0.0 29.06537292656838" Properties=species:S:1:pos:R:3:initial_magmoms:R:1 pbc="T T T"
Si       1.28449909      -1.34073217       1.38124465       0.00000000
Si      -1.27855324      -1.38919492      -1.37153682       0.00000000
Si      -1.18345222       1.35757603       1.50991706       0.00000000
Si       1.51348762       1.30259728      -1.29890245       0.00000000
H       -2.08350731      -1.47152458       2.28241654       0.00000000
Si       2.27810765       0.34018407       2.67453749       0.00000000
Si       0.76222540       2.24072210       2.62070842       0.00000000
Si      -2.56150478       2.68547168       0.11739504       0.00000000
Si      -2.53583174      -0.01910817      -2.78286413       0.00000000
Si      -2.67491576      -0.10143783       2.65503462       0.00000000
