10
Lattice="16.2900001489832 0.0 0.0 0.0 16.2900001489832 0.0 0.0 0.0 29.06537292656838" Properties=species:S:1:pos:R:3:initial_magmoms:R:1 pbc="T T T"
Si       0.47318052       0.12504204       2.23631886       0.00000000
Si       0.22417321       2.20204964      -0.76061174       0.00000000
Si      -1.52612378      -1.52928078      -0.92622624       0.00000000
Si       1.95594520      -0.99737155      -0.96354618       0.00000000
Si       0.44962518      -2.80095150      -1.06326947       0.00000000
H        3.13928340       0.85105477      -0.53753501       0.00000000
Si       2.54787494       2.22114152      -0.16491693       0.00000000
Si       2.13068804       1.84968065       2.09555526       0.00000000
Si       0.45327414       1.76479346      -3.03564568       0.00000000
Si       2.09507810      -0.03072294      -3.07744169       0.00000000
