10
Lattice="16.2900001489832 0.0 0.0 0.0 16.2900001489832 0.0 0.0 0.0 29.06537292656838" Properties=species:S:1:pos:R:3:initial_magmoms:R:1 pbc="T T T"
Si      -1.32742324      -1.32890563      -1.40382845       0.00000000
Si       1.42715062      -1.32638068       1.31427803       0.00000000
Si      -1.36415719       1.35568639       1.36554935       0.00000000
Si       1.38026800       1.35109261      -1.37592569       0.00000000
Si      -2.62402580      -2.69337233       0.02258379       0.00000000
Si       2.71375112       0.13566312       2.62579486       0.00000000
Si      -2.56459988       0.08576685      -2.82593901       0.00000000
Si      -2.68038920       2.71998694      -0.04723123       0.00000000
Si       2.77653279      -2.62948295      -0.11504075       0.00000000
Si       0.04108338      -2.66616803      -2.76937780       0.00000000
