10
Lattice="16.2900001489832 0.0 0.0 0.0 16.2900001489832 0.0 0.0 0.0 29.06537292656838" Properties=species:S:1:pos:R:3:initial_magmoms:R:1 pbc="T T T"
Si      -1.32763501      -1.36726858       1.36545053       0.00000000
Si       1.35777151      -1.41089320      -1.28988928       0.00000000
Si       1.37694484       1.33301071       1.35347559       0.00000000
Si      -1.35184195       1.35412255      -1.37249598       0.00000000
Si       0.02370195       2.68591151       2.70719534       0.00000000
Si      -2.69081480       2.71406063      -0.00442084       0.00000000
Si      -2.66901878      -0.02365308       2.73591193       0.00000000
Si      -2.68143176      -2.73766485       0.02864683       0.00000000
Si       2.73924498      -0.02982699       2.69414499       0.00000000
Si      -2.72930807      -0.00249237      -2.70549240       0.00000000
