10
Lattice="16.2900001489832 0.0 0.0 0.0 16.2900001489832 0.0 0.0 0.0 29.06537292656838" Properties=species:S:1:pos:R:3:initial_magmoms:R:1 pbc="T T T"
H       -0.66635875      -0.87962743       0.98429885       0.00000000
Si       1.26517915      -1.43654995      -1.32706680       0.00000000
Si       1.32928030       1.32905224       1.37583849       0.00000000
Si      -1.49921758       1.26793216      -1.27963211       0.00000000
H       -1.89294689      -2.06938388       0.63109644       0.00000000
H       -2.36333693      -0.90362260       1.80304134       0.00000000
H       -1.03351906      -1.93502396       2.32322432       0.00000000
Si      -0.13328478       2.63397932      -2.62501009       0.00000000
Si       2.60576471      -0.06053364      -2.65977228       0.00000000
Si      -0.07048683       2.68590386       2.65608097       0.00000000
