10
Lattice="16.2900001489832 0.0 0.0 0.0 16.2900001489832 0.0 0.0 0.0 29.06537292656838" Properties=species:S:1:pos:R:3:initial_magmoms:R:1 pbc="T T T"
Si       1.35555607       1.36137160       1.33378090       0.00000000
Si      -1.34705269       1.36565587      -1.34168668       0.00000000
Si      -1.35441577      -1.34772058       1.35738198       0.00000000
Si       1.37756386      -1.36041049      -1.32427652       0.00000000
Si       2.68208336      -0.03021795       2.66773619       0.00000000
Si       0.02086749      -2.70995555      -2.67648487       0.00000000
Si      -2.70146846       0.00858483      -2.68543700       0.00000000
Si       0.01539405      -2.71617833       2.67796720       0.00000000
Si      -2.70143588      -2.70897815       0.00805111       0.00000000
Si       2.70733286      -0.01084914      -2.70624781       0.00000000
