10
Lattice="16.2900001489832 0.0 0.0 0.0 16.2900001489832 0.0 0.0 0.0 29.06537292656838" Properties=species:S:1:pos:R:3:initial_magmoms:R:1 pbc="T T T"
Si      -1.34855137      -1.35843940       1.34808106       0.00000000
Si       1.35597961      -1.35316144      -1.34767415       0.00000000
Si       1.35203743       1.35441577       1.35153984       0.00000000
Si      -1.36443412       1.35770635      -1.33683276       0.00000000
Si      -2.69851997       0.00757485       2.68375121       0.00000000
Si       0.00374670       2.71303844      -2.67250291       0.00000000
Si      -0.00693954      -2.71179632      -2.68360588       0.00000000
Si       2.69347007      -0.00874773       2.70278903       0.00000000
Si      -2.71969697      -0.00187335      -2.68203635       0.00000000
Si       2.71181261       0.01014867      -2.69133727       0.00000000
