10
Lattice="16.2900001489832 0.0 0.0 0.0 16.2900001489832 0.0 0.0 0.0 29.06537292656838" Properties=species:S:1:pos:R:3:initial_magmoms:R:1 pbc="T T T"
Si      -1.35337321       1.37469682      -1.32122466       0.00000000
Si       1.34001541       1.36498798       1.34970872       0.00000000
Si      -1.36660069      -1.35402970       1.33444940       0.00000000
Si       1.35584929      -1.35219707      -1.35526021       0.00000000
Si      -2.69796611       0.02611287      -2.67284588       0.00000000
Si       2.70151733       0.00136836       2.68221074       0.00000000
Si      -0.00720018      -2.71128498       2.67293889       0.00000000
Si      -2.72722295       0.00873144       2.67128216       0.00000000
Si       2.69216687       0.01312974      -2.70939268       0.00000000
Si      -0.01255959       2.71482626      -2.68990144       0.00000000
