10
Lattice="16.2900001489832 0.0 0.0 0.0 16.2900001489832 0.0 0.0 0.0 29.06537292656838" Properties=species:S:1:pos:R:3:initial_magmoms:R:1 pbc="T T T"
H        1.05352318      -1.06962584      -0.15855161       0.00000000
Si       0.26547813       0.75599284       2.16650383       0.00000000
Si      -1.81319105      -1.44239155       0.03638985       0.00000000
Si       0.92877436       1.44957218      -1.59551458       0.00000000
H       -2.43923204       1.31877977      -0.69434269       0.00000000
Si      -0.73295227      -3.32662328      -0.89474844       0.00000000
Si       1.16763463      -1.17419657       3.19396477       0.00000000
H       -1.66891052      -1.41989506      -2.92290110       0.00000000
Si       1.92238292       3.13048842      -0.30222175       0.00000000
Si       1.91733302       2.45002254       2.00423186       0.00000000
