10
Lattice="16.2900001489832 0.0 0.0 0.0 16.2900001489832 0.0 0.0 0.0 29.06537292656838" Properties=species:S:1:pos:R:3:initial_magmoms:R:1 pbc="T T T"
Si       1.32545215      -1.28453167      -1.38307926       0.00000000
Si      -1.32229189       1.29150379      -1.40784296       0.00000000
Si       1.38266100       1.34760655       1.31021121       0.00000000
Si      -1.43889571      -1.37562535       1.23389135       0.00000000
Si      -2.59203224       2.52788222       0.07021031       0.00000000
Si      -0.07260453      -2.72438849       2.58582067       0.00000000
Si       2.63353916      -0.04425993       2.70189614       0.00000000
Si      -0.00522909       2.72639216       2.60925608       0.00000000
Si       2.68385897      -2.68811066      -0.08476480       0.00000000
Si      -2.77733100      -0.02269197       2.60531191       0.00000000
