10
Lattice="16.2900001489832 0.0 0.0 0.0 16.2900001489832 0.0 0.0 0.0 29.06537292656838" Properties=species:S:1:pos:R:3:initial_magmoms:R:1 pbc="T T T"
H       -0.56107648       0.40123899      -0.36474136       0.00000000
Si       2.24332850       0.92551636       0.33009544       0.00000000
Si       0.55223101       2.06439914       1.55084110       0.00000000
Si      -1.29627676      -2.25860852       0.48376407       0.00000000
Si      -1.29122686      -1.57814263      -1.82268954       0.00000000
Si       2.23238162      -0.46664334      -1.59039908       0.00000000
Si      -2.19737441      -0.40997043       1.69390087       0.00000000
Si      -2.86187610       1.34151409       0.24231801       0.00000000
H        2.27934569      -2.00629271      -1.00743489       0.00000000
Si      -0.69859666       0.75202786       3.06523423       0.00000000
