10
Lattice="16.2900001489832 0.0 0.0 0.0 16.2900001489832 0.0 0.0 0.0 29.06537292656838" Properties=species:S:1:pos:R:3:initial_magmoms:R:1 pbc="T T T"
Si      -1.32833060      -1.31333239      -1.38740651       0.00000000
Si      -1.29729814       1.35106003       1.40231705       0.00000000
Si       1.25780467       1.48820554      -1.32433465       0.00000000
Si       1.41840778      -1.27404091       1.40699657       0.00000000
H        1.92608563       0.60939262      -2.30720930       0.00000000
Si       0.67102257       2.22663125       2.34418046       0.00000000
Si       2.34760568       0.53587584       2.58969566       0.00000000
Si      -0.02479338      -2.60667695       2.64329221       0.00000000
H        3.25590351      -0.42200874      -1.78702632       0.00000000
Si      -2.66828085      -2.64764630      -0.00020346       0.00000000
