10
Lattice="16.2900001489832 0.0 0.0 0.0 16.2900001489832 0.0 0.0 0.0 29.06537292656838" Properties=species:S:1:pos:R:3:initial_magmoms:R:1 pbc="T T T"
Si       1.34068330       1.36376623       1.35491142       0.00000000
Si       1.34928442      -1.35314515      -1.35982347       0.00000000
Si      -1.32903595       1.36119241      -1.37217626       0.00000000
Si      -1.35886294      -1.34555401       1.35915497       0.00000000
Si       2.67198356       2.71887449      -0.02136305       0.00000000
Si      -2.63536364       2.76324976      -0.03258228       0.00000000
Si      -0.00648342      -2.70619256       2.70191707       0.00000000
Si      -2.70681158      -2.70278795       0.00020346       0.00000000
Si       2.73452087       0.02257794       2.67500253       0.00000000
Si      -0.00513135      -2.71021619      -2.70357379       0.00000000
