10
Lattice="16.2900001489832 0.0 0.0 0.0 16.2900001489832 0.0 0.0 0.0 29.06537292656838" Properties=species:S:1:pos:R:3:initial_magmoms:R:1 pbc="T T T"
Si       1.35542575       1.35505108       1.34453509       0.00000000
Si      -1.34141635       1.36428751      -1.35476610       0.00000000
Si       1.35879778      -1.35234694      -1.34941807       0.00000000
Si      -1.34112313      -1.35342208       1.36944411       0.00000000
Si       2.69581583      -0.02142135       2.68529167       0.00000000
Si      -2.70433550       0.00565263      -2.69069783       0.00000000
Si       2.71958294       0.01897785      -2.68029243       0.00000000
Si      -0.00392589       2.70870122       2.69569708       0.00000000
Si      -2.69465924      -2.71094924       0.02583912       0.00000000
Si       0.01120752      -2.71008587      -2.70374819       0.00000000
