10
Lattice="16.2900001489832 0.0 0.0 0.0 16.2900001489832 0.0 0.0 0.0 29.06537292656838" Properties=species:S:1:pos:R:3:initial_magmoms:R:1 pbc="T T T"
Si      -1.34143264       1.36316350      -1.35124919       0.00000000
Si       1.34358292       1.36272367       1.34994125       0.00000000
Si      -1.35464383      -1.35361756       1.35415572       0.00000000
Si       1.35935164      -1.35365014      -1.35116199       0.00000000
Si       2.70317891      -0.01316232       2.67381085       0.00000000
Si      -2.69347007       0.00874773      -2.70278903       0.00000000
Si       0.00392589      -2.70870122      -2.69569708       0.00000000
Si       0.02028105       2.72082734      -2.68627990       0.00000000
Si      -0.03194469       2.71840208       2.69261615       0.00000000
Si       2.72741843       0.00767259      -2.68645429       0.00000000
