10
Lattice="16.2900001489832 0.0 0.0 0.0 16.2900001489832 0.0 0.0 0.0 29.06537292656838" Properties=species:S:1:pos:R:3:initial_magmoms:R:1 pbc="T T T"
Si      -1.31725828      -1.29225313       1.44530473       0.00000000
Si       1.20049156       1.49398849       1.42684822       0.00000000
Si      -1.90431731       0.79216642      -1.22173389       0.00000000
Si       1.59619195      -1.49494960      -1.03272177       0.00000000
H       -0.11784186       3.04916386      -0.48553705       0.00000000
Si      -2.89538463      -2.37710198       0.10716403       0.00000000
Si      -2.67050117       0.13830210       2.77763236       0.00000000
Si       2.87730273       2.57758301       0.22525664       0.00000000
Si       2.63168210       0.24456177       2.85506252       0.00000000
Si      -0.05336604      -2.67273290       2.84195403       0.00000000
