10
Lattice="16.2900001489832 0.0 0.0 0.0 16.2900001489832 0.0 0.0 0.0 29.06537292656838" Properties=species:S:1:pos:R:3:initial_magmoms:R:1 pbc="T T T"
Si       1.36770841       1.39676212      -1.25254318       0.00000000
Si       1.19894401      -1.37091754       1.46018621       0.00000000
Si      -1.41737662       1.29961621       1.32340456       0.00000000
Si      -1.59342265      -1.31395141      -1.12270816       0.00000000
H       -0.92514169      -2.19276434      -2.10558281       0.00000000
Si      -2.18020475      -0.57552571       2.54580695       0.00000000
H        1.18791568       1.24221025       2.94031126       0.00000000
Si       2.26872461       0.17006760       2.80966240       0.00000000
H        0.40467618      -3.22416570      -1.58539983       0.00000000
Si      -0.50362164      -2.26628111       2.79132215       0.00000000
