10
Lattice="16.2900001489832 0.0 0.0 0.0 16.2900001489832 0.0 0.0 0.0 29.06537292656838" Properties=species:S:1:pos:R:3:initial_magmoms:R:1 pbc="T T T"
Si       1.34012293      -1.39165471      -1.30895907       0.00000000
Si      -1.34539111      -1.36404316       1.34372126       0.00000000
Si       1.37603423       1.35322660       1.32488689       0.00000000
Si      -1.31911534       1.35687556      -1.38258166       0.00000000
Si       2.71290404      -0.03577284      -2.59930467       0.00000000
Si       0.00159642       2.70611111       2.65471490       0.00000000
Si       2.72536589      -0.02524950       2.65564499       0.00000000
Si      -2.70783785      -0.00467523       2.67570010       0.00000000
Si      -2.69796611      -0.01420488      -2.69588891       0.00000000
Si       0.01611081      -2.72766278       2.67622328       0.00000000
