10
Lattice="16.2900001489832 0.0 0.0 0.0 16.2900001489832 0.0 0.0 0.0 29.06537292656838" Properties=species:S:1:pos:R:3:initial_magmoms:R:1 pbc="T T T"
Si       1.36691020       1.33662709       1.32134092       0.00000000
Si       1.39585753      -1.32840064      -1.31753335       0.00000000
Si      -1.34101073       1.40890582      -1.30567468       0.00000000
Si      -1.33539231      -1.32323671       1.39973023       0.00000000
Si      -0.02695995       2.65219121       2.63939745       0.00000000
Si       0.02581965      -2.67748958      -2.64303062       0.00000000
Si      -2.69794982       0.05387103      -2.64396071       0.00000000
Si      -2.69892722      -2.67226049       0.05972934       0.00000000
Si       2.75452500       0.05800869      -2.63160793       0.00000000
Si       2.74321974      -2.66284487       0.05749131       0.00000000
