10
Lattice="16.2900001489832 0.0 0.0 0.0 16.2900001489832 0.0 0.0 0.0 29.06537292656838" Properties=species:S:1:pos:R:3:initial_magmoms:R:1 pbc="T T T"
Si      -0.05476698       1.01911870       2.11883662       0.00000000
Si       0.99064378       1.74705365      -1.25408365       0.00000000
Si      -1.94567762      -0.88314607      -1.11079136       0.00000000
Si       1.51588225      -1.90053803       0.05382907       0.00000000
H        2.24603264       0.07884360       1.51177724       0.00000000
H       -2.24497379       2.04007817      -0.53605267       0.00000000
H       -2.96269491       0.42942069       1.46759788       0.00000000
H        2.80710912      -0.32239539       1.87651861       0.00000000
H       -3.37297485       0.27771192       0.82548566       0.00000000
Si       2.25003998       0.42531561      -2.67758935       0.00000000
