10
Lattice="16.2900001489832 0.0 0.0 0.0 16.2900001489832 0.0 0.0 0.0 29.06537292656838" Properties=species:S:1:pos:R:3:initial_magmoms:R:1 pbc="T T T"
Si       1.38724827      -1.34811154      -1.31677766       0.00000000
Si       1.36664142       1.35234694       1.33747220       0.00000000
Si      -1.36078516      -1.37132479       1.33087436       0.00000000
Si      -1.34434855       1.35648460      -1.36464832       0.00000000
Si       0.06351471      -2.70425405      -2.66918655       0.00000000
Si       0.00390960       2.69739596       2.68953522       0.00000000
Si      -2.71958294      -0.01897785       2.68029243       0.00000000
Si       2.71614575      -0.01366731       2.68444878       0.00000000
Si      -0.00902466      -2.73302220       2.67747309       0.00000000
Si      -2.70516629       2.70861977      -0.01813679       0.00000000
