10
Lattice="16.2900001489832 0.0 0.0 0.0 16.2900001489832 0.0 0.0 0.0 29.06537292656838" Properties=species:S:1:pos:R:3:initial_magmoms:R:1 pbc="T T T"
Si      -1.36664142      -1.35234694      -1.33747220       0.00000000
Si      -1.36273182       1.34504902       1.35206302       0.00000000
Si       1.34950434      -1.36601425       1.34697658       0.00000000
Si       1.36015800       1.34724817      -1.35883525       0.00000000
Si       0.02060685      -2.70045848      -2.65424986       0.00000000
Si       2.71460635      -0.01358586       2.68712279       0.00000000
Si      -0.01048587       2.69952995       2.70680005       0.00000000
Si      -0.01872698      -2.73033435       2.67828692       0.00000000
Si       0.00066463       2.71476110      -2.69552269       0.00000000
Si       2.70740617       2.70466130       0.00209271       0.00000000
