10
Lattice="16.2900001489832 0.0 0.0 0.0 16.2900001489832 0.0 0.0 0.0 29.06537292656838" Properties=species:S:1:pos:R:3:initial_magmoms:R:1 pbc="T T T"
Si       1.40152645      -1.38829897       1.25646701       0.00000000
Si       1.34607529       1.33833754      -1.37464681       0.00000000
Si      -1.34167699      -1.37217187      -1.35453357       0.00000000
Si      -1.33810948       1.31268079       1.42673196       0.00000000
Si       0.04776228      -2.72028341       2.58987005       0.00000000
Si      -2.66937065       2.66782961       0.01412577       0.00000000
Si       2.74906785      -0.08881308       2.65410453       0.00000000
Si       2.68646537       2.72425817      -0.02830967       0.00000000
Si      -2.69451589      -0.02943603      -2.71790302       0.00000000
Si       0.00778662       2.63042777      -2.79629233       0.00000000
