10
Lattice="16.2900001489832 0.0 0.0 0.0 16.2900001489832 0.0 0.0 0.0 29.06537292656838" Properties=species:S:1:pos:R:3:initial_magmoms:R:1 pbc="T T T"
Si      -1.39017721       1.30224299       1.31302822       0.00000000
Si       1.26348010      -1.34571691       1.41507675       0.00000000
Si      -1.29396847      -1.41092578      -1.33776285       0.00000000
Si       1.43214677       1.31718498      -1.31192374       0.00000000
H        1.93176107      -2.22452984       0.43220210       0.00000000
Si       0.01229569       2.60139736       2.59632257       0.00000000
Si      -2.65356446      -0.03503979      -2.66163246       0.00000000
Si       0.07714944       2.67726641      -2.65820275       0.00000000
Si      -2.60827826      -0.05833449       2.78199217       0.00000000
Si       2.85690276      -0.03176550       2.53778491       0.00000000
