10
Lattice="16.2900001489832 0.0 0.0 0.0 16.2900001489832 0.0 0.0 0.0 29.06537292656838" Properties=species:S:1:pos:R:3:initial_magmoms:R:1 pbc="T T T"
Si       1.28835982      -1.30536658      -1.44986800       0.00000000
Si      -0.94532500      -1.84404431       1.11730200       0.00000000
Si      -1.46786096       1.33063237      -1.28968873       0.00000000
Si       1.26268678       1.39921327       1.45039117       0.00000000
H       -1.51512803       1.46505745       2.60460620       0.00000000
Si      -0.46739268       2.57065976       2.60687330       0.00000000
Si       2.54563832      -2.67545333      -0.03854068       0.00000000
Si       2.68092677       2.64264527       0.03935451       0.00000000
Si      -0.09751194       2.72759762      -2.61300609       0.00000000
Si      -0.11187972      -2.68866452      -2.73301702       0.00000000
