10
Lattice="16.28999089631971 0.0 0.0 0.0 16.28999089631971 0.0 0.0 0.0 34.433804113860816" Properties=species:S:1:pos:R:3:initial_magmoms:R:1 pbc="T T T"
Si      -1.34972375      -1.35053711       1.38945298       0.00000000
Si       1.36516017       1.36272366       1.38569969       0.00000000
Si      -1.32910061       1.36622601      -1.49465864       0.00000000
Si       1.30470961      -1.47564594      -1.45067287       0.00000000
Si      -2.70040910      -2.70758438       0.00456248       0.00000000
Si       2.70880661      -2.72007881       0.02494042       0.00000000
Si      -2.69674385       2.73658968       0.00154952       0.00000000
Si       2.72174087       2.72552877       0.01267165       0.00000000
Si      -2.70860297       0.00713502       2.75017438       0.00000000
Si       0.00714207      -2.70948696       2.75024325       0.00000000
