10
Lattice="16.28999089631971 0.0 0.0 0.0 16.28999089631971 0.0 0.0 0.0 34.433804113860816" Properties=species:S:1:pos:R:3:initial_magmoms:R:1 pbc="T T T"
Si       1.45627713       1.55262338       1.05729055       0.00000000
Si      -0.75874585      -1.19174382       2.05824736       0.00000000
Si       1.20098025      -1.50625485      -1.62551750       0.00000000
Si       0.85587660       0.49350555      -3.05903200       0.00000000
Si      -0.44132054       3.13819424       1.03277366       0.00000000
Si      -2.57154659       2.14118108       1.38465290       0.00000000
Si       1.30924359       2.72722849      -2.29649498       0.00000000
Si       2.86216929       2.43983542      -0.57625003       0.00000000
Si      -0.58258090      -3.10984245      -2.16671390       0.00000000
Si      -3.66713054       1.09682199      -0.71656786       0.00000000
