10
Lattice="16.28999089631971 0.0 0.0 0.0 16.28999089631971 0.0 0.0 0.0 34.433804113860816" Properties=species:S:1:pos:R:3:initial_magmoms:R:1 pbc="T T T"
Si      -1.35467640      -1.35848663       1.35624500       0.00000000
Si      -1.35645201       1.35762489      -1.35679594       0.00000000
Si       1.35874890      -1.35726651      -1.35796669       0.00000000
Si       1.35760860       1.35925389       1.35827660       0.00000000
Si      -0.00690696      -2.70571103       2.70976973       0.00000000
Si      -2.71375110      -2.71392501       0.00017217       0.00000000
Si      -2.71453302       0.00045612      -2.71469377       0.00000000
Si       2.71663443       0.00110772      -2.71283434       0.00000000
Si      -2.71446786       2.71547784       0.00082641       0.00000000
Si       2.71581993      -2.71431755       0.00041321       0.00000000
