10
Lattice="16.28999089631971 0.0 0.0 0.0 16.28999089631971 0.0 0.0 0.0 34.433804113860816" Properties=species:S:1:pos:R:3:initial_magmoms:R:1 pbc="T T T"
Si       1.82664657      -1.37324278      -0.34712737       0.00000000
Si       0.68054733       2.19611517       0.37474330       0.00000000
Si      -1.63492956       0.24337423      -1.67282957       0.00000000
Si      -0.98290602      -0.92798821       1.96055860       0.00000000
Si       0.86226228      -3.03016384      -1.73160811       0.00000000
Si      -2.94702390       2.07082878      -0.88422615       0.00000000
Si      -2.55331089       0.71280642       2.60109658       0.00000000
Si       1.78250067       2.16819411       2.46604713       0.00000000
Si      -1.29855735       3.52099716       0.04841396       0.00000000
Si       3.05479854      -1.53270559       1.70695349       0.00000000
