10
Lattice="16.28999089631971 0.0 0.0 0.0 16.28999089631971 0.0 0.0 0.0 34.433804113860816" Properties=species:S:1:pos:R:3:initial_magmoms:R:1 pbc="T T T"
Si       1.28796885      -1.40146128       1.34213402       0.00000000
Si       1.37744982       1.18136709      -1.54582528       0.00000000
Si      -1.45824822       1.32737436       1.34320836       0.00000000
Si      -1.07305488      -1.70499285      -1.30762720       0.00000000
Si      -1.12894587      -0.28887057      -3.38879237       0.00000000
Si       2.51155962       2.61022815       0.02484400       0.00000000
Si       2.61680931      -0.04315221       2.72164251       0.00000000
Si      -0.10533114       2.68587891       2.72198685       0.00000000
Si      -0.09759339      -2.75325435       2.71840573       0.00000000
Si      -2.86800437       2.65022010      -0.10953399       0.00000000
