10
Lattice="16.28999089631971 0.0 0.0 0.0 16.28999089631971 0.0 0.0 0.0 34.433804113860816" Properties=species:S:1:pos:R:3:initial_magmoms:R:1 pbc="T T T"
Si       1.35575154       1.35547461       1.35924074       0.00000000
Si      -1.35930276      -1.35971001       1.35924074       0.00000000
Si      -1.36433637       1.36058967      -1.35672707       0.00000000
Si       1.35780408      -1.36844145      -1.35707141       0.00000000
Si       2.71311579       2.71192662       0.00148065       0.00000000
Si       2.71327869      -0.00228060       2.71631216       0.00000000
Si       2.71378368      -2.71622718       0.00320235       0.00000000
Si      -2.71733490       2.71303434       0.00244480       0.00000000
Si      -0.00252495       2.71347417       2.71693196       0.00000000
Si      -0.00285075      -2.71733490       2.71603668       0.00000000
