10
Lattice="16.28999089631971 0.0 0.0 0.0 16.28999089631971 0.0 0.0 0.0 34.433804113860816" Properties=species:S:1:pos:R:3:initial_magmoms:R:1 pbc="T T T"
Si       1.35852084       1.35580041      -1.35800113       0.00000000
Si      -1.35954711       1.35552348       1.35827660       0.00000000
Si      -1.35760860      -1.35925389      -1.35827660       0.00000000
Si       1.36156707      -1.35795069       1.35992942       0.00000000
Si      -2.71406061       2.71358820      -0.00048207       0.00000000
Si       2.71526607       2.71318095      -0.00034434       0.00000000
Si       0.00099369       2.71355562      -2.71507254       0.00000000
Si      -2.71406061      -0.00162900      -2.71507254       0.00000000
Si      -2.71228500      -2.71774052      -0.00203160       0.00000000
Si       2.71627605      -0.00216657      -2.71521027       0.00000000
