10
Lattice="16.28999089631971 0.0 0.0 0.0 16.28999089631971 0.0 0.0 0.0 34.433804113860816" Properties=species:S:1:pos:R:3:initial_magmoms:R:1 pbc="T T T"
Si      -0.65855583       1.02322377       2.00070844       0.00000000
Si       0.47791602       1.51927056      -1.73312320       0.00000000
Si      -1.64846655      -1.45016838      -0.93264011       0.00000000
Si       1.97910468      -1.32488199       0.32632934       0.00000000
Si       1.16929620      -0.04616586      -3.48425528       0.00000000
Si      -0.33637221      -3.27762293      -1.72124353       0.00000000
Si       1.26250758       2.08466388       2.81324337       0.00000000
Si       1.29855735      -3.52099716      -0.04841396       0.00000000
Si      -1.09872792      -0.69845004       3.52784850       0.00000000
Si      -2.80767924      -2.52079768       0.83243768       0.00000000
