10
Lattice="16.28999089631971 0.0 0.0 0.0 16.28999089631971 0.0 0.0 0.0 34.433804113860816" Properties=species:S:1:pos:R:3:initial_magmoms:R:1 pbc="T T T"
Si      -0.81471177      -1.74495222       1.36622595       0.00000000
Si       1.78808814       0.80114220       1.36381558       0.00000000
Si       0.56703861      -1.84116096      -1.48118407       0.00000000
Si      -1.88574669       1.78764831      -0.01247821       0.00000000
Si      -2.17067508      -0.48940047       2.74510775       0.00000000
Si       0.54525888       2.23212096       2.71604216       0.00000000
Si      -2.64645711      -2.65715964       0.25709528       0.00000000
Si       2.95899705       2.34279522      -0.00759404       0.00000000
Si      -1.63859481      -2.92472289      -1.80183184       0.00000000
Si      -0.92302398       3.48863382       1.30701355       0.00000000
