10
Lattice="16.28999089631971 0.0 0.0 0.0 16.28999089631971 0.0 0.0 0.0 34.433804113860816" Properties=species:S:1:pos:R:3:initial_magmoms:R:1 pbc="T T T"
Si      -1.36047564      -1.35356868      -1.33103256       0.00000000
Si      -1.35669636       1.35273789       1.35610727       0.00000000
Si       1.35713619      -1.36026387       1.35472991       0.00000000
Si       1.35545832       1.36795275      -1.36009815       0.00000000
Si       2.59828758      -0.06302601      -2.71232472       0.00000000
Si      -0.00451233      -2.60912043      -2.70991435       0.00000000
Si      -2.72439661      -0.04517217      -2.67136913       0.00000000
Si      -0.11282454       2.62446561      -2.76912675       0.00000000
Si       0.00175932       2.71290402       2.71211123       0.00000000
Si      -2.71269062      -0.00219915       2.71255887       0.00000000
