10
Lattice="16.28999089631971 0.0 0.0 0.0 16.28999089631971 0.0 0.0 0.0 34.433804113860816" Properties=species:S:1:pos:R:3:initial_magmoms:R:1 pbc="T T T"
Si      -1.92755986       0.75112701       1.05419150       0.00000000
Si       1.74793329      -1.21539201       1.05377830       0.00000000
Si       1.02811077       1.75638291      -1.24006528       0.00000000
Si      -0.47638476      -1.86169843      -1.41949993       0.00000000
Si       2.89527057      -0.99270608      -1.00915206       0.00000000
Si      -2.54730802      -1.34421985       1.94661290       0.00000000
Si       1.79045019       0.06569268       3.08957480       0.00000000
Si       0.75052917      -3.40462207       0.81298257       0.00000000
Si      -2.90739752       1.99512915      -0.78113128       0.00000000
Si       1.50737886      -1.64313550      -2.89278550       0.00000000
