10
Lattice="16.28999089631971 0.0 0.0 0.0 16.28999089631971 0.0 0.0 0.0 34.433804113860816" Properties=species:S:1:pos:R:3:initial_magmoms:R:1 pbc="T T T"
Si       1.83816360       1.42781850       0.07138132       0.00000000
Si       0.56571912      -1.99904364      -1.12753555       0.00000000
Si      -1.46557872       1.53585378      -1.10081490       0.00000000
Si      -0.24918813      -0.55226358       2.32077083       0.00000000
Si      -3.44583999       0.36282717      -0.76584267       0.00000000
Si       1.70955405       2.23668216       2.25582864       0.00000000
Si      -1.88284707       0.96687666       3.08991914       0.00000000
Si       1.78673607       0.10963170       3.35295912       0.00000000
Si       2.12359698      -3.16781856       0.24286176       0.00000000
Si       3.84242004       0.37880766      -0.56123689       0.00000000
