10
Lattice="16.28999089631971 0.0 0.0 0.0 16.28999089631971 0.0 0.0 0.0 34.433804113860816" Properties=species:S:1:pos:R:3:initial_magmoms:R:1 pbc="T T T"
Si      -1.05694407       1.50151446      -1.50014395       0.00000000
Si      -1.02811077      -1.75638291       1.24006528       0.00000000
Si       2.36190339      -0.33958134      -0.24468675       0.00000000
Si      -0.63739512       2.08238328       1.10112480       0.00000000
Si       1.86715980      -2.74908900       0.23091322       0.00000000
Si      -2.72883890       2.21221458      -0.03178242       0.00000000
Si      -0.07524351      -1.62007308      -3.35736664       0.00000000
Si      -1.78564464       0.24550659      -3.29180465       0.00000000
Si       0.47926809      -3.39951842      -1.65272022       0.00000000
Si       0.71982252      -2.97177493       2.29384358       0.00000000
