10
Lattice="16.28999089631971 0.0 0.0 0.0 16.28999089631971 0.0 0.0 0.0 34.433804113860816" Properties=species:S:1:pos:R:3:initial_magmoms:R:1 pbc="T T T"
Si       1.35852084       1.35562577      -1.35717471       0.00000000
Si      -1.35672894       1.35819122       1.35720915       0.00000000
Si       1.35777150      -1.35772263       1.35741575       0.00000000
Si      -1.35845568      -1.36016613      -1.35600396       0.00000000
Si       2.71186146       0.00503361      -2.71255887       0.00000000
Si      -0.00175932      -2.71290402      -2.71211123       0.00000000
Si       0.00234576       2.71362960       2.71328198       0.00000000
Si      -2.71302131       0.00311139      -2.71496924       0.00000000
Si      -2.71426912       2.71438871      -0.00024104       0.00000000
Si      -2.71444994      -2.71510317       0.00044764       0.00000000
