10
Lattice="16.28999089631971 0.0 0.0 0.0 16.28999089631971 0.0 0.0 0.0 34.433804113860816" Properties=species:S:1:pos:R:3:initial_magmoms:R:1 pbc="T T T"
Si       1.40409700      -1.24443287       1.47561329       0.00000000
Si      -1.30470961       1.47564594       1.45067287       0.00000000
Si       1.80222460       1.16880750      -1.18749103       0.00000000
Si      -1.19180360      -1.57386554      -1.55223341       0.00000000
Si       3.01620427      -0.95979051      -1.56029092       0.00000000
Si       2.65982794      -2.67879995       0.07661181       0.00000000
Si      -2.75925951      -2.66356880      -0.10913800       0.00000000
Si       0.06139049      -2.58725015       2.84288056       0.00000000
Si      -2.63381022       2.84187195      -0.04398577       0.00000000
Si      -2.65443336       0.12510883       2.84012585       0.00000000
