10
Lattice="16.28999089631971 0.0 0.0 0.0 16.28999089631971 0.0 0.0 0.0 34.433804113860816" Properties=species:S:1:pos:R:3:initial_magmoms:R:1 pbc="T T T"
Si       0.60942519       0.10572210      -2.21960425       0.00000000
Si       2.28123531       0.22724550       0.61973995       0.00000000
Si      -0.72019719      -2.27651121      -0.33669392       0.00000000
Si      -1.08496287       2.13741090       1.01858693       0.00000000
Si       2.05381062       1.24310619       2.73683471       0.00000000
Si      -0.77045184      -3.07426509       1.89733810       0.00000000
Si      -1.24497954       0.89925687      -3.39999572       0.00000000
Si       2.54097936       1.94458617      -2.04626439       0.00000000
Si      -2.67247224       2.21583096      -1.98331936       0.00000000
Si       0.30292884       2.78784032       2.90222037       0.00000000
