10
Lattice="16.28999089631971 0.0 0.0 0.0 16.28999089631971 0.0 0.0 0.0 34.433804113860816" Properties=species:S:1:pos:R:3:initial_magmoms:R:1 pbc="T T T"
Si       1.33872849      -1.83700701       0.57373636       0.00000000
Si      -0.22742469       1.01586069       2.11709476       0.00000000
Si      -2.28123531      -0.22724550      -0.61973995       0.00000000
Si       0.25974405       1.71734067      -2.66600434       0.00000000
Si      -1.67181012      -0.12152340      -2.83934421       0.00000000
Si       0.04792518      -0.91121373       3.48260246       0.00000000
Si       2.28622005      -1.18742697       2.60849985       0.00000000
Si       2.41539975      -2.50372413      -1.38007321       0.00000000
Si       1.61661960       2.43411926       2.55158074       0.00000000
Si      -3.36619818       1.91016540       0.39884698       0.00000000
