10
Lattice="16.28999089631971 0.0 0.0 0.0 16.28999089631971 0.0 0.0 0.0 34.433804113860816" Properties=species:S:1:pos:R:3:initial_magmoms:R:1 pbc="T T T"
Si      -1.07474904       1.63826642      -1.35531529       0.00000000
Si       1.66169403      -1.07310375      -1.32945549       0.00000000
Si       1.15312023       1.89516624       1.29009763       0.00000000
Si      -1.93155417      -1.83886407      -0.17333987       0.00000000
Si      -0.25974405      -1.71734067       2.66600434       0.00000000
Si       0.29763459      -2.42952318      -2.71799941       0.00000000
Si      -2.43204813       0.30446010      -2.72016874       0.00000000
Si      -2.54097936      -1.94458617       2.04626439       0.00000000
Si      -2.38718547       2.96384237       0.09865290       0.00000000
Si       3.19992615      -2.35493127       0.16727951       0.00000000
