10
Lattice="16.28999089631971 0.0 0.0 0.0 16.28999089631971 0.0 0.0 0.0 34.433804113860816" Properties=species:S:1:pos:R:3:initial_magmoms:R:1 pbc="T T T"
Si      -1.75088178       1.54473413       0.16538565       0.00000000
Si       0.22742469      -1.01586069      -2.11709476       0.00000000
Si       1.84404429       1.41825857       0.43448598       0.00000000
Si       0.27534987      -1.92707442       1.36550770       0.00000000
Si       2.51364474      -2.20328766       0.49140509       0.00000000
Si       1.56615318      -2.85286770      -1.54335840       0.00000000
Si      -2.05381062      -1.24310619      -2.73683471       0.00000000
Si      -3.13877349       0.89430471      -1.71824779       0.00000000
Si       3.55666086      -0.11328066       1.05271085       0.00000000
Si      -2.89821906       1.32204820       2.22831601       0.00000000
