10
Lattice="16.28999089631971 0.0 0.0 0.0 16.28999089631971 0.0 0.0 0.0 34.433804113860816" Properties=species:S:1:pos:R:3:initial_magmoms:R:1 pbc="T T T"
Si      -0.27534987       1.92707442      -1.36550770       0.00000000
Si      -1.63955592      -1.69539804      -0.32119870       0.00000000
Si      -0.12430899      -0.14190219       2.39005168       0.00000000
Si       2.23829487      -0.27621324      -0.87410261       0.00000000
Si       1.29080331      -0.92579328      -2.90886610       0.00000000
Si      -0.04792518       0.91121373      -3.48260246       0.00000000
Si      -3.20761503      -1.09884195       1.33827054       0.00000000
Si      -0.29624994      -3.68150742      -0.35105283       0.00000000
Si       3.28131099       1.81379376      -0.31279685       0.00000000
Si       1.56869442       3.34533299      -0.93102172       0.00000000
