10
Lattice="16.28999089631971 0.0 0.0 0.0 16.28999089631971 0.0 0.0 0.0 34.433804113860816" Properties=species:S:1:pos:R:3:initial_magmoms:R:1 pbc="T T T"
Si       1.04800086       1.49102370       1.45555215       0.00000000
Si       0.94255569      -2.09096811       0.61829373       0.00000000
Si      -1.99357020      -0.80655048       1.02915811       0.00000000
Si       0.12430899       0.14190219      -2.39005168       0.00000000
Si      -3.08330604      -0.95693976      -1.05178113       0.00000000
Si      -1.51524693      -1.55349585      -2.71125038       0.00000000
Si      -0.96661602      -2.84299596       1.86572785       0.00000000
Si       3.30851529       0.86354919       1.22870212       0.00000000
Si       2.95279056      -1.44337545       1.62830664       0.00000000
Si       0.80047431       0.59093604       3.74581461       0.00000000
