10
Lattice="16.28999089631971 0.0 0.0 0.0 16.28999089631971 0.0 0.0 0.0 34.433804113860816" Properties=species:S:1:pos:R:3:initial_magmoms:R:1 pbc="T T T"
Si      -0.18057465       2.02662261       1.08222063       0.00000000
Si       1.05135660      -1.29889455       1.61270812       0.00000000
Si       1.46903220       0.20386935      -1.83435864       0.00000000
Si      -2.25896688      -0.66257946      -0.34385616       0.00000000
Si      -0.78929937      -1.11222093       3.05489994       0.00000000
Si      -1.83075165      -2.07039873      -2.22256556       0.00000000
Si       0.90389952      -3.55435487       0.59711693       0.00000000
Si      -2.69109171      -1.78232637       1.84926848       0.00000000
Si       3.09226554       1.77002253      -1.24092613       0.00000000
Si       2.98014147      -0.00122175       2.40719972       0.00000000
