10
Lattice="16.28999089631971 0.0 0.0 0.0 16.28999089631971 0.0 0.0 0.0 34.433804113860816" Properties=species:S:1:pos:R:3:initial_magmoms:R:1 pbc="T T T"
Si       2.25896688       0.66257946       0.34385616       0.00000000
Si       0.42821523      -1.40781927      -1.87870940       0.00000000
Si      -1.42491888       1.94961978      -0.59322591       0.00000000
Si      -0.43212483      -1.11974691       2.19312464       0.00000000
Si       2.07839223       2.68920207       1.42607679       0.00000000
Si       1.46966751      -0.44964147       3.39875610       0.00000000
Si       2.14083180      -2.93935850      -1.26048454       0.00000000
Si       3.31032348      -0.63631509       1.95656428       0.00000000
Si      -2.67196725       1.12816395      -2.62340970       0.00000000
Si      -1.41582906      -2.82607784      -2.31319539       0.00000000
