10
Lattice="16.28999089631971 0.0 0.0 0.0 16.28999089631971 0.0 0.0 0.0 34.433804113860816" Properties=species:S:1:pos:R:3:initial_magmoms:R:1 pbc="T T T"
Si      -1.81710063       1.05589011       1.04988727       0.00000000
Si       1.90179234       0.67010544       1.20563146       0.00000000
Si       0.21533751      -2.28428384       0.70479150       0.00000000
Si       0.43212483       1.11974691      -2.19312464       0.00000000
Si       1.34993601       2.93683125       1.57686251       0.00000000
Si      -1.02371247       3.32062365       1.29082074       0.00000000
Si       2.69109171       1.78232637      -1.84926848       0.00000000
Si       3.74244831       0.48343181      -0.23656037       0.00000000
Si       2.47585194      -2.91175835       0.47794147       0.00000000
Si      -0.83266335      -3.77530754      -0.75076065       0.00000000
