10
Lattice="16.28999089631971 0.0 0.0 0.0 16.28999089631971 0.0 0.0 0.0 34.433804113860816" Properties=species:S:1:pos:R:3:initial_magmoms:R:1 pbc="T T T"
Si       0.20660607       2.34478260      -0.16962101       0.00000000
Si      -1.10195334       0.02792106      -2.09130383       0.00000000
Si      -0.98329698      -0.45180315       2.10790093       0.00000000
Si       1.88908614      -1.37790268      -0.56023831       0.00000000
Si       0.88096320       0.86719815      -3.26642692       0.00000000
Si      -1.58563602      -2.74281965       1.74321231       0.00000000
Si      -1.78250067      -2.16819411      -2.46604713       0.00000000
Si       2.01173355       2.95699338       1.26193076       0.00000000
Si       2.63884968      -0.68885523      -2.71465933       0.00000000
Si      -2.59638165       1.14712551       2.66810480       0.00000000
