10
Lattice="16.28999089631971 0.0 0.0 0.0 16.28999089631971 0.0 0.0 0.0 34.433804113860816" Properties=species:S:1:pos:R:3:initial_magmoms:R:1 pbc="T T T"
Si       1.55466873      -0.56241062       1.69039082       0.00000000
Si       0.74976354       0.68904745      -2.15442103       0.00000000
Si      -1.88908614       1.37790268       0.56023831       0.00000000
Si      -0.61678827      -2.32299702      -0.19885533       0.00000000
Si      -1.84494024      -2.16353421      -2.25293619       0.00000000
Si      -2.99103948       1.40582374      -1.53106552       0.00000000
Si      -0.13211190      -1.08070792      -3.48477179       0.00000000
Si      -1.00812294       2.24510083      -2.70618861       0.00000000
Si      -1.42568451      -2.79071550       2.03751820       0.00000000
Si       3.53579337      -1.42049844       0.55496993       0.00000000
