10
Lattice="16.28999089631971 0.0 0.0 0.0 16.28999089631971 0.0 0.0 0.0 34.433804113860816" Properties=species:S:1:pos:R:3:initial_magmoms:R:1 pbc="T T T"
Si       1.55292570      -0.28739307       1.72024495       0.00000000
Si       1.15921269       1.07062930      -1.76507779       0.00000000
Si      -1.97355631       0.88599844       0.99169411       0.00000000
Si      -0.45336699      -2.23372294      -0.76253702       0.00000000
Si      -2.63343163      -1.68650926      -1.49404916       0.00000000
Si       0.14703354      -1.17460511       3.35378553       0.00000000
Si       2.47130703      -0.75682526      -2.55368121       0.00000000
Si       1.70895132       1.82234764       2.69541082       0.00000000
Si       0.77193423      -2.32207990      -2.86682240       0.00000000
Si      -1.75056412       0.41096575       3.32926865       0.00000000
