10
Lattice="16.28999089631971 0.0 0.0 0.0 16.28999089631971 0.0 0.0 0.0 34.433804113860816" Properties=species:S:1:pos:R:3:initial_magmoms:R:1 pbc="T T T"
Si      -1.35454608       1.35627282      -1.35579736       0.00000000
Si      -1.35760860      -1.33949412       1.37043174       0.00000000
Si       1.36277253       1.34969166       1.35665821       0.00000000
Si       1.36164852      -1.35653346      -1.35534972       0.00000000
Si       2.58958872      -0.14576292       2.71793055       0.00000000
Si      -2.70824508      -2.71485882       0.00447640       0.00000000
Si      -2.71129131      -0.00110772      -2.71345415       0.00000000
Si      -2.71049310       2.71521720       0.00234150       0.00000000
Si       0.00307881       2.71445157      -2.71314424       0.00000000
Si       0.00325800      -2.71577106      -2.71355745       0.00000000
