10
Lattice="16.28999089631971 0.0 0.0 0.0 16.28999089631971 0.0 0.0 0.0 34.433804113860816" Properties=species:S:1:pos:R:3:initial_magmoms:R:1 pbc="T T T"
Si       1.31839857       1.36091547      -1.35879310       0.00000000
Si      -1.49263641      -1.44161613      -1.21041776       0.00000000
Si       1.54021950      -1.15479810       1.44436115       0.00000000
Si       0.28867509       1.75081662       1.72530672       0.00000000
Si      -0.97586874      -2.00189439       2.09498825       0.00000000
Si      -2.11756968       2.32526718       2.06217281       0.00000000
Si       2.60885979      -0.04860936      -2.71620885       0.00000000
Si      -0.10736739       2.65385277      -2.71576121       0.00000000
Si      -0.11152134      -2.73779514      -2.70243532       0.00000000
Si       2.21177475       3.18774123      -0.07217329       0.00000000
