10
Lattice="16.28999089631971 0.0 0.0 0.0 16.28999089631971 0.0 0.0 0.0 34.433804113860816" Properties=species:S:1:pos:R:3:initial_magmoms:R:1 pbc="T T T"
Si       0.41664933       0.93555099       2.06200064       0.00000000
Si       0.18057465      -2.02662261      -1.08222063       0.00000000
Si      -0.83144160       1.75436784      -1.25914162       0.00000000
Si      -1.16058105      -0.87211773       2.34391036       0.00000000
Si       1.34117199       2.83213053      -1.46967001       0.00000000
Si       1.23193125      -3.32551716       0.53048748       0.00000000
Si      -2.07839223      -2.68920207      -1.42607679       0.00000000
Si      -2.08497339       3.07773486       0.19427563       0.00000000
Si       3.06784683       2.13899103       0.12878250       0.00000000
Si      -0.60872472      -3.13884354       1.97267931       0.00000000
