10
Lattice="16.28999089631971 0.0 0.0 0.0 16.28999089631971 0.0 0.0 0.0 34.433804113860816" Properties=species:S:1:pos:R:3:initial_magmoms:R:1 pbc="T T T"
Si      -0.56571912       1.99904364       1.12753555       0.00000000
Si      -1.89908820      -1.34905635      -0.42057472       0.00000000
Si       1.29280698       0.38385756      -1.95456712       0.00000000
Si       1.55787786      -1.16877492       1.37039730       0.00000000
Si      -3.65260896       0.25814763      -0.73313053       0.00000000
Si       1.58501700      -3.35393181       0.46375473       0.00000000
Si       2.74317084      -1.49061645      -2.16757475       0.00000000
Si       3.42858888       0.30806019       1.65519945       0.00000000
Si      -0.81490725       1.44678006       3.44830637       0.00000000
Si      -1.20770802      -2.91449277      -2.17170681       0.00000000
