10
Lattice="16.28999089631971 0.0 0.0 0.0 16.28999089631971 0.0 0.0 0.0 34.433804113860816" Properties=species:S:1:pos:R:3:initial_magmoms:R:1 pbc="T T T"
Si       0.02713914      -2.18515689      -0.90664257       0.00000000
Si      -1.55787786       1.16877492      -1.37039730       0.00000000
Si      -0.64721799      -0.70757244       2.19016333       0.00000000
Si       1.87071102       1.47683511       0.28480215       0.00000000
Si      -1.95577740      -3.02443398       0.26848052       0.00000000
Si      -0.26507088       1.55263248      -3.32496442       0.00000000
Si       1.18529298      -0.32184153      -3.53797205       0.00000000
Si       1.69127667       2.08981152       2.61552435       0.00000000
Si       1.15790949      -0.09536166       3.62171511       0.00000000
Si      -2.12359698       3.16781856      -0.24286176       0.00000000
