10
Lattice="16.28999089631971 0.0 0.0 0.0 16.28999089631971 0.0 0.0 0.0 34.433804113860816" Properties=species:S:1:pos:R:3:initial_magmoms:R:1 pbc="T T T"
Si       0.80936865       1.71856242       1.49499407       0.00000000
Si       1.59840738      -1.87439256       0.24733815       0.00000000
Si      -1.74389337      -1.01871144       1.51116419       0.00000000
Si      -0.20181681       0.48322656      -2.79495901       0.00000000
Si       3.19393143       0.59337954      -1.70471529       0.00000000
Si       2.13382710       0.24804783       3.00218317       0.00000000
Si      -2.37265479      -2.98796067       0.29206769       0.00000000
Si       1.87304049      -0.62985285      -3.32269178       0.00000000
Si       1.66469139       3.56436603       0.18346341       0.00000000
Si      -0.60338160      -2.45759085       3.04908893       0.00000000
