10
Lattice="16.28999089631971 0.0 0.0 0.0 16.28999089631971 0.0 0.0 0.0 34.433804113860816" Properties=species:S:1:pos:R:3:initial_magmoms:R:1 pbc="T T T"
Si       1.35607734       1.35938421       1.35438557       0.00000000
Si      -1.35669636      -1.35674523       1.35817329       0.00000000
Si       1.35702216      -1.35796698      -1.35724358       0.00000000
Si      -1.35873261       1.35739683      -1.35734688       0.00000000
Si       0.00633681       2.70484047       2.71156029       0.00000000
Si       2.71430496       2.71428867      -0.00051651       0.00000000
Si       2.71406061       0.00001629      -2.71472820       0.00000000
Si       2.71406061      -2.71484253       0.00020660       0.00000000
Si       0.00048870      -2.71407690       2.71569235       0.00000000
Si      -2.71568961       2.71469592       0.00000000       0.00000000
