10
Lattice="16.28999089631971 0.0 0.0 0.0 16.28999089631971 0.0 0.0 0.0 34.433804113860816" Properties=species:S:1:pos:R:3:initial_magmoms:R:1 pbc="T T T"
Si      -1.07667126       0.66671712       1.95380957       0.00000000
Si      -1.83449835      -0.92453895      -1.26079444       0.00000000
Si       1.04427045       1.86613353      -1.11865162       0.00000000
Si       1.81231137      -1.75655070      -0.00144622       0.00000000
Si       2.23448301       0.45442584      -2.62836817       0.00000000
Si      -0.50683077      -2.29043916      -2.64503414       0.00000000
Si      -0.11078829      -3.19347531       1.79603379       0.00000000
Si      -2.41539975       2.50372413       1.38007321       0.00000000
Si       0.91893519      -3.58337646      -1.28806603       0.00000000
Si       3.67580592      -0.86858280      -1.22395025       0.00000000
