10
Lattice="16.28999089631971 0.0 0.0 0.0 16.28999089631971 0.0 0.0 0.0 34.433804113860816" Properties=species:S:1:pos:R:3:initial_magmoms:R:1 pbc="T T T"
Si      -0.15661206      -1.74576672       1.52610705       0.00000000
Si       0.50707512      -0.33643737      -2.25779136       0.00000000
Si       2.11320396       0.76269780       0.71756644       0.00000000
Si      -1.64524113       1.69787412      -0.14028340       0.00000000
Si       0.86279985       1.97048727      -2.65739588       0.00000000
Si       1.84764438      -2.79477756       0.89348885       0.00000000
Si       2.23109469       2.57385258      -0.81246606       0.00000000
Si      -0.68085684       3.35479518       1.24419734       0.00000000
Si      -1.50315975      -0.98403003      -3.26780427       0.00000000
Si      -1.39771458       2.59796178      -2.43054586       0.00000000
