10
Lattice="16.28999089631971 0.0 0.0 0.0 16.28999089631971 0.0 0.0 0.0 34.433804113860816" Properties=species:S:1:pos:R:3:initial_magmoms:R:1 pbc="T T T"
Si       1.32512634       1.34848620      -1.37418502       0.00000000
Si      -1.38675141      -1.36681245      -1.36685062       0.00000000
Si      -1.19021256       1.41170769       1.50971655       0.00000000
Si       1.44132291      -1.32300864       1.40441792       0.00000000
Si      -0.42217164      -2.21097654       2.62692195       0.00000000
Si      -2.23448301      -0.45442584       2.62836817       0.00000000
Si       2.68323993       2.70817992       0.02141784       0.00000000
Si       2.68164351      -2.72706003      -0.01432447       0.00000000
Si       2.68801290      -0.00821016      -2.72867390       0.00000000
Si      -2.72844468       2.69353521       0.01298155       0.00000000
