10
Lattice="16.28999089631971 0.0 0.0 0.0 16.28999089631971 0.0 0.0 0.0 34.433804113860816" Properties=species:S:1:pos:R:3:initial_magmoms:R:1 pbc="T T T"
Si      -1.34974053       1.34545626       1.35717471       0.00000000
Si       1.35822762       1.35490446      -1.35490208       0.00000000
Si      -1.35607734      -1.35938421      -1.35438557       0.00000000
Si       1.35601218      -1.35847197       1.36588647       0.00000000
Si       0.00055386       2.71381626      -2.71235227       0.00000000
Si      -2.71480995      -0.00198738      -2.71173246       0.00000000
Si       2.71542897       2.71132389       0.00289244       0.00000000
Si       2.71590138      -0.00203625      -2.71173246       0.00000000
Si      -2.71542897       2.71309950       0.00575045       0.00000000
Si      -2.71277370      -2.71612944       0.00378772       0.00000000
