10
Lattice="16.28999089631971 0.0 0.0 0.0 16.28999089631971 0.0 0.0 0.0 34.433804113860816" Properties=species:S:1:pos:R:3:initial_magmoms:R:1 pbc="T T T"
Si       1.19021256      -1.41170769      -1.50971655       0.00000000
Si      -1.04427045      -1.86613353       1.11865162       0.00000000
Si      -1.53823212       1.28182752      -1.49673500       0.00000000
Si       1.45137384       1.23505893       1.62961512       0.00000000
Si       2.56142331       2.79114181       0.07268980       0.00000000
Si       2.63153547      -2.73471633      -0.10529863       0.00000000
Si       2.51533890      -0.06322149      -2.88390157       0.00000000
Si       0.76804092      -3.62268423       1.11720540       0.00000000
Si      -0.19194507       2.65173507      -2.88090583       0.00000000
Si      -2.12094171      -1.19941641       3.07246119       0.00000000
