10
Lattice="16.28999089631971 0.0 0.0 0.0 16.28999089631971 0.0 0.0 0.0 34.433804113860816" Properties=species:S:1:pos:R:3:initial_magmoms:R:1 pbc="T T T"
Si       1.35798327       1.35669636       1.35710585       0.00000000
Si      -1.35700587      -1.35759557       1.35751905       0.00000000
Si      -1.35879777       1.35568638      -1.35986055       0.00000000
Si       1.35887922      -1.35767213      -1.36072140       0.00000000
Si      -2.72534958       0.02381598      -2.70171910       0.00000000
Si       0.00061902       2.71422351       2.71421169       0.00000000
Si      -2.71419093      -2.71432080       0.00030990       0.00000000
Si      -2.71456560      -0.00063531       2.71421169       0.00000000
Si      -2.71555929       2.71389771      -0.00117075       0.00000000
Si       2.71420815       2.71580364      -0.00065424       0.00000000
