10
Lattice="16.28999089631971 0.0 0.0 0.0 16.28999089631971 0.0 0.0 0.0 34.433804113860816" Properties=species:S:1:pos:R:3:initial_magmoms:R:1 pbc="T T T"
Si       1.35327546      -1.35755158      -1.36106574       0.00000000
Si      -1.35984033       1.36158336      -1.36061810       0.00000000
Si       1.35998694       1.37590227       1.34804975       0.00000000
Si      -1.35718506      -1.37594625       1.36244309       0.00000000
Si      -0.13190013       2.57235390       2.71266217       0.00000000
Si       2.71148107      -2.71220345      -0.00258254       0.00000000
Si      -2.71578735      -2.71141253      -0.00268584       0.00000000
Si       2.71195256       0.00226431      -2.71824045       0.00000000
Si       2.71383387       2.71655298      -0.00771318       0.00000000
Si      -0.00335574      -2.71271366      -2.71834375       0.00000000
