10
Lattice="16.28999089631971 0.0 0.0 0.0 16.28999089631971 0.0 0.0 0.0 34.433804113860816" Properties=species:S:1:pos:R:3:initial_magmoms:R:1 pbc="T T T"
Si       0.83885355       1.80701712      -1.29973910       0.00000000
Si      -1.05850791      -0.07467336       2.13365743       0.00000000
Si       1.95449049      -1.39302306       0.09944488       0.00000000
Si      -1.82535966      -0.85954185      -1.35021908       0.00000000
Si      -1.45660293       2.19628296       1.49955857       0.00000000
Si      -0.38643138      -2.14128303      -2.64995818       0.00000000
Si       2.33074062       0.61056549      -2.66435152       0.00000000
Si       1.00833471      -3.33734256      -1.06149147       0.00000000
Si      -2.30156523      -2.06228468       1.97567505       0.00000000
Si       0.63934992       3.14703252       1.98077125       0.00000000
