10
Lattice="16.28999089631971 0.0 0.0 0.0 16.28999089631971 0.0 0.0 0.0 34.433804113860816" Properties=species:S:1:pos:R:3:initial_magmoms:R:1 pbc="T T T"
Si       1.17335308      -1.38295162      -1.50985429       0.00000000
Si      -1.16958942      -1.32684886       1.56412199       0.00000000
Si       1.83322840       1.18955607       0.97588899       0.00000000
Si      -1.60800219       1.40336232      -1.10639318       0.00000000
Si      -1.27206981       3.27285159       0.27584936       0.00000000
Si       1.07443043       3.39286002       0.67634916       0.00000000
Si      -1.26851859      -3.40235776       0.40036206       0.00000000
Si      -0.07400547      -0.28248978       3.66534276       0.00000000
Si      -0.26821485      -3.19588201      -1.80805120       0.00000000
Si       3.80678471       0.30355763      -0.01580512       0.00000000
