10
Lattice="16.28999089631971 0.0 0.0 0.0 16.28999089631971 0.0 0.0 0.0 34.433804113860816" Properties=species:S:1:pos:R:3:initial_magmoms:R:1 pbc="T T T"
Si      -1.35679410      -1.35562122       1.35820773       0.00000000
Si       1.35736425      -1.35752715      -1.35710585       0.00000000
Si      -1.35749457       1.35755973      -1.35731245       0.00000000
Si       1.35975888       1.35694071       1.35734688       0.00000000
Si       0.00110772       2.71275741      -2.71500367       0.00000000
Si       2.71688010      -0.00065160       2.71111265       0.00000000
Si      -0.00061902      -2.71422351      -2.71421169       0.00000000
Si       2.71358913       0.00158013      -2.71486593       0.00000000
Si       2.71499879      -2.71494027       0.00058537       0.00000000
Si      -2.71518462      -2.71485882       0.00000000       0.00000000
