10
Lattice="16.28999089631971 0.0 0.0 0.0 16.28999089631971 0.0 0.0 0.0 34.433804113860816" Properties=species:S:1:pos:R:3:initial_magmoms:R:1 pbc="T T T"
Si      -0.33262551       2.32287255       0.15343712       0.00000000
Si       2.01082850      -0.53056530       1.14781707       0.00000000
Si       0.12230532      -0.32848785      -2.35909567       0.00000000
Si      -2.02652487      -1.12612770       0.74649086       0.00000000
Si      -2.12146299      -1.29788946      -2.35523908       0.00000000
Si       1.20350750      -0.91572606       3.33484692       0.00000000
Si       2.84593535       1.04966244      -2.10311463       0.00000000
Si      -1.31067711      -3.42855630       0.56392273       0.00000000
Si       2.84813450      -2.53425159       0.21379961       0.00000000
Si      -0.65081808       3.21528762      -2.03145784       0.00000000
