10
Lattice="16.28999089631971 0.0 0.0 0.0 16.28999089631971 0.0 0.0 0.0 34.433804113860816" Properties=species:S:1:pos:R:3:initial_magmoms:R:1 pbc="T T T"
Si      -1.34236116      -1.34944731       1.37852713       0.00000000
Si       1.37778444       1.36650294       1.37628893       0.00000000
Si       1.32206775      -1.38020283      -1.45354466       0.00000000
Si      -1.33428132       1.43091360      -1.46839596       0.00000000
Si       2.25118745       0.56117421      -2.43745328       0.00000000
Si       0.56059984       2.32334496      -2.68591924       0.00000000
Si      -2.68666083      -2.69198766      -0.01192443       0.00000000
Si      -2.69679321       0.00553860       2.73590844       0.00000000
Si      -2.69156412       2.74155813      -0.00045453       0.00000000
Si       2.73182390      -2.70304857      -0.00080231       0.00000000
