10
Lattice="16.28999089631971 0.0 0.0 0.0 16.28999089631971 0.0 0.0 0.0 34.433804113860816" Properties=species:S:1:pos:R:3:initial_magmoms:R:1 pbc="T T T"
Si       1.89933255       0.68781267      -1.24130490       0.00000000
Si      -1.89051966       1.56778218      -0.18243040       0.00000000
Si      -0.75181608      -2.03020641      -1.17443441       0.00000000
Si       1.26198630       1.07730657       1.88652588       0.00000000
Si       0.56290095       1.98184140      -2.67864155       0.00000000
Si      -0.82829763      -2.72657133       1.89296501       0.00000000
Si      -2.16752948      -0.75989592      -2.67261563       0.00000000
Si      -0.67474809       3.39281604      -1.25215155       0.00000000
Si       2.88590382       2.50577667       0.10591844       0.00000000
Si      -3.63166721       0.50547870      -1.34894503       0.00000000
