10
Lattice="16.28999089631971 0.0 0.0 0.0 16.28999089631971 0.0 0.0 0.0 34.433804113860816" Properties=species:S:1:pos:R:3:initial_magmoms:R:1 pbc="T T T"
Si      -1.35689184      -1.35597960      -1.35889640       0.00000000
Si       1.36047564      -1.35641943       1.35779452       0.00000000
Si       1.35876519       1.35858600      -1.35879310       0.00000000
Si      -1.35886293       1.35977517       1.36116904       0.00000000
Si       2.70953199      -0.00047241       2.71369518       0.00000000
Si      -2.71342530      -0.01827738       2.71135368       0.00000000
Si      -2.71451673      -2.71415835      -0.00154952       0.00000000
Si      -2.71393029       0.00089595      -2.71634659       0.00000000
Si       0.00097740      -2.71378368      -2.71662206       0.00000000
Si       0.00280188      -2.72073951       2.71090605       0.00000000
