10
Lattice="16.28999089631971 0.0 0.0 0.0 16.28999089631971 0.0 0.0 0.0 34.433804113860816" Properties=species:S:1:pos:R:3:initial_magmoms:R:1 pbc="T T T"
Si       0.99688284       1.50840513      -1.57834316       0.00000000
Si      -1.54310283      -0.98363907      -1.57503751       0.00000000
Si      -1.29147120       1.47634641       1.51922029       0.00000000
Si       1.63370359      -1.65363048       1.19657536       0.00000000
Si       0.51627897       3.01552335       1.23307521       0.00000000
Si       0.08159661      -2.59139691       2.60805221       0.00000000
Si      -1.81438020      -2.99933109       1.25686899       0.00000000
Si       2.36370899       2.89080711      -0.26135272       0.00000000
Si      -0.30278223      -2.38769046      -2.99377990       0.00000000
Si       2.43521883       0.32347053      -2.98145260       0.00000000
