10
Lattice="16.28999089631971 0.0 0.0 0.0 16.28999089631971 0.0 0.0 0.0 34.433804113860816" Properties=species:S:1:pos:R:3:initial_magmoms:R:1 pbc="T T T"
Si       0.58068963       2.24355654      -0.39468048       0.00000000
Si       1.19795031      -0.92204658      -1.81207995       0.00000000
Si      -2.24834580      -0.69261822      -0.34371842       0.00000000
Si       0.93027303      -0.37287810       2.18733976       0.00000000
Si       2.99182207       2.10994596      -0.38497015       0.00000000
Si       3.11002557       0.44281107      -1.96462179       0.00000000
Si      -2.65225635      -2.38371570       1.22970070       0.00000000
Si      -0.92290995      -0.08162919       3.68607192       0.00000000
Si      -0.55509804       2.94915789      -2.39924551       0.00000000
Si      -3.95418573       0.75232107       0.29678512       0.00000000
