10
Lattice="16.28999089631971 0.0 0.0 0.0 16.28999089631971 0.0 0.0 0.0 34.433804113860816" Properties=species:S:1:pos:R:3:initial_magmoms:R:1 pbc="T T T"
Si       0.48822759      -0.72969426      -2.23627022       0.00000000
Si       1.82151522       0.80658306       1.36224823       0.00000000
Si      -0.85532274      -1.84580361       1.31153065       0.00000000
Si      -1.84902903       1.67811435       0.10182082       0.00000000
Si       0.46423242       2.11722759       2.83018967       0.00000000
Si      -2.27289483      -0.62804466       2.82360592       0.00000000
Si       1.52924004      -2.97098649      -1.88817870       0.00000000
Si      -0.90494208       3.50883342       1.38223018       0.00000000
Si      -1.66469139      -3.56436603      -0.18346341       0.00000000
Si      -3.73414041       0.61714665       1.33566188       0.00000000
