10
Lattice="16.28999089631971 0.0 0.0 0.0 16.28999089631971 0.0 0.0 0.0 34.433804113860816" Properties=species:S:1:pos:R:3:initial_magmoms:R:1 pbc="T T T"
Si      -1.35091341      -1.33589403      -1.37956703       0.00000000
Si       1.35843596      -1.35389448       1.35745018       0.00000000
Si      -1.35597960       1.35954711       1.35669264       0.00000000
Si       1.33377472       1.37262798      -1.37441229       0.00000000
Si       2.70369921      -0.04012227      -2.66888989       0.00000000
Si      -0.00004887      -2.71199178       2.71479707       0.00000000
Si      -2.71598283      -2.71191033      -0.00729997       0.00000000
Si      -2.71469592       0.00288333       2.71465933       0.00000000
Si       2.71843515      -2.71094922      -0.00282357       0.00000000
Si       2.71540521       0.00285075       2.71503810       0.00000000
