10
Lattice="16.28999089631971 0.0 0.0 0.0 16.28999089631971 0.0 0.0 0.0 34.433804113860816" Properties=species:S:1:pos:R:3:initial_magmoms:R:1 pbc="T T T"
Si       1.35068535       1.35704727       1.38489050       0.00000000
Si      -1.36590021      -1.35711990       1.38275560       0.00000000
Si      -1.38895056       1.44331748      -1.32570909       0.00000000
Si       1.24585920      -1.43163036      -1.56437336       0.00000000
Si       2.68345009      -2.70374904       0.01361169       0.00000000
Si       2.70040910       2.70758438      -0.00456248       0.00000000
Si      -2.72787453      -2.71666701       0.01955841       0.00000000
Si       2.70755118      -0.00190258       2.74568076       0.00000000
Si      -0.00819387       2.71471940       2.74561190       0.00000000
Si      -0.00630423      -2.71682991       2.74471662       0.00000000
