10
Lattice="16.28999089631971 0.0 0.0 0.0 16.28999089631971 0.0 0.0 0.0 34.433804113860816" Properties=species:S:1:pos:R:3:initial_magmoms:R:1 pbc="T T T"
Si       1.35246096      -1.35449721       1.35565963       0.00000000
Si      -1.35720135      -1.35641943      -1.35779452       0.00000000
Si       1.35760860       1.35915821      -1.35700254       0.00000000
Si      -1.35482301       1.36045935       1.35865537       0.00000000
Si       0.00377928       2.69592562       2.72378430       0.00000000
Si       2.71534752      -2.71119357       0.00117075       0.00000000
Si      -2.71542897      -2.71132389      -0.00289244       0.00000000
Si       0.00047241      -2.71336014      -2.71462490       0.00000000
Si       2.71423980       2.71432029       0.00027547       0.00000000
Si       2.71523349       0.00182448      -2.71452160       0.00000000
