10
Lattice="16.28999089631971 0.0 0.0 0.0 16.28999089631971 0.0 0.0 0.0 34.433804113860816" Properties=species:S:1:pos:R:3:initial_magmoms:R:1 pbc="T T T"
Si       1.80775017       1.53917694      -0.28614507       0.00000000
Si       1.29147120      -1.47634641      -1.51922029       0.00000000
Si      -1.43179326       1.50978978      -1.35934404       0.00000000
Si      -0.45115155      -0.92292624       2.50740215       0.00000000
Si      -1.95154200       2.67380802       0.63857525       0.00000000
Si       2.75134257       1.07507484       1.76039479       0.00000000
Si       2.28835404       0.03205872      -3.09756345       0.00000000
Si       1.36751292      -2.36612250       2.71696640       0.00000000
Si      -0.25163163      -2.45998548      -3.09425780       0.00000000
Si       1.17880956       2.18176857       3.13251378       0.00000000
