10
Lattice="16.28999089631971 0.0 0.0 0.0 16.28999089631971 0.0 0.0 0.0 34.433804113860816" Properties=species:S:1:pos:R:3:initial_magmoms:R:1 pbc="T T T"
Si       1.43833599      -1.18493460      -1.40310943       0.00000000
Si       1.36682615       1.38240198       1.31699044       0.00000000
Si      -0.99688284      -1.50840513       1.57834316       0.00000000
Si      -1.29806865       1.53914436      -1.37969443       0.00000000
Si      -0.48060387       1.50711822       2.81141838       0.00000000
Si      -2.53998567      -2.49204420       0.00330565       0.00000000
Si       0.07012845      -2.53954584      -2.76996005       0.00000000
Si       2.90993876      -2.47914252       0.01363579       0.00000000
Si      -2.65618224       0.17945064      -2.77529729       0.00000000
Si      -2.28835404      -0.03205872       3.09756345       0.00000000
