10
Lattice="16.28999089631971 0.0 0.0 0.0 16.28999089631971 0.0 0.0 0.0 34.433804113860816" Properties=species:S:1:pos:R:3:initial_magmoms:R:1 pbc="T T T"
Si       1.44156793       1.81293039       0.29819691       0.00000000
Si       1.28880683      -1.96864650      -0.24568533       0.00000000
Si      -1.12368420       0.56858616      -2.04805495       0.00000000
Si      -1.00030374      -0.20647575       2.20841326       0.00000000
Si       0.26821485       3.19588201       1.80805120       0.00000000
Si      -3.37015665       0.34505478      -1.49239634       0.00000000
Si       2.18317507      -2.33763129       1.92202715       0.00000000
Si      -3.48804738      -1.46610000       0.03763617       0.00000000
Si       1.75432453       2.83159852      -1.83539165       0.00000000
Si      -0.55930086      -1.07399970      -3.62918725       0.00000000
