10
Lattice="16.28999089631971 0.0 0.0 0.0 16.28999089631971 0.0 0.0 0.0 34.433804113860816" Properties=species:S:1:pos:R:3:initial_magmoms:R:1 pbc="T T T"
Si       1.47711204       1.11843882       1.55731240       0.00000000
Si      -1.13915970      -1.47059604       1.68218322       0.00000000
Si      -1.57710006       1.70316837      -1.25989916       0.00000000
Si       3.04456795       2.20814208       0.11421699       0.00000000
Si      -2.08324665      -3.30131511       0.40177385       0.00000000
Si      -2.76943032       2.81030586       0.56178890       0.00000000
Si      -2.49662169      -0.16659783       3.14124417       0.00000000
Si       0.23125284       2.55006918       3.12168576       0.00000000
Si       3.21030844      -2.07976059      -1.81431815       0.00000000
Si       0.23001480      -2.86220187       3.13014270       0.00000000
