10
Lattice="16.28999089631971 0.0 0.0 0.0 16.28999089631971 0.0 0.0 0.0 34.433804113860816" Properties=species:S:1:pos:R:3:initial_magmoms:R:1 pbc="T T T"
Si      -0.80732100      -0.38516076       2.18702986       0.00000000
Si       0.83730600      -2.00368629      -0.93401746       0.00000000
Si      -2.01082850       0.53056530      -1.14781707       0.00000000
Si       1.56221100       1.75387914       0.44247463       0.00000000
Si      -0.99436929      -3.36336372      -0.33359488       0.00000000
Si       1.49750712       3.01467627      -1.49095012       0.00000000
Si       1.13099841      -1.20673062       3.29727962       0.00000000
Si      -0.91534487       1.75627377       3.12652229       0.00000000
Si       0.83510685       1.58022774      -3.25093170       0.00000000
Si      -2.34345401       2.85343785      -0.99437995       0.00000000
