10
Lattice="16.28999089631971 0.0 0.0 0.0 16.28999089631971 0.0 0.0 0.0 34.433804113860816" Properties=species:S:1:pos:R:3:initial_magmoms:R:1 pbc="T T T"
Si       1.36392097      -1.30839651       1.34033657       0.00000000
Si      -0.80244866      -1.71398493      -1.39614185       0.00000000
Si      -1.36992449       1.41275025       1.29447761       0.00000000
Si       1.64884936       0.96865227      -1.41724938       0.00000000
Si      -0.06382259       1.75189176      -3.01167314       0.00000000
Si       2.61157207       2.66963778      -0.09775762       0.00000000
Si       2.71988429      -2.56394826      -0.03854522       0.00000000
Si      -2.69732982      -2.60641629      -0.17861857       0.00000000
Si       0.88813894      -3.47615568      -1.14767589       0.00000000
Si       0.01473593      -2.67082695       2.66606632       0.00000000
