10
Lattice="16.28999089631971 0.0 0.0 0.0 16.28999089631971 0.0 0.0 0.0 34.433804113860816" Properties=species:S:1:pos:R:3:initial_magmoms:R:1 pbc="T T T"
Si      -1.35548216      -1.35834165       1.35762235       0.00000000
Si       1.35696967       1.35708732       1.35762235       0.00000000
Si       1.35734759      -1.35770634      -1.35669264       0.00000000
Si      -1.35803969       1.35739683      -1.35672707       0.00000000
Si       0.00163906      -2.71593396       2.71138812       0.00000000
Si       2.71440233      -0.00016290      -2.71348858       0.00000000
Si      -0.00165191      -2.71370223      -2.71459046       0.00000000
Si      -2.71413332      -0.00252495      -2.71472820       0.00000000
Si       2.71472813       2.71466334       0.00055094       0.00000000
Si       2.71441862      -2.71505430       0.00092971       0.00000000
