10
Lattice="16.28999089631971 0.0 0.0 0.0 16.28999089631971 0.0 0.0 0.0 34.433804113860816" Properties=species:S:1:pos:R:3:initial_magmoms:R:1 pbc="T T T"
Si       2.28248964       0.21369222      -0.46833443       0.00000000
Si      -1.21064348       1.54583955       1.30283814       0.00000000
Si      -1.68780201      -0.52709553      -1.57834316       0.00000000
Si       0.25128954      -1.92886632       1.38961138       0.00000000
Si       0.91368981      -0.49441779       3.14959295       0.00000000
Si       2.52205038      -2.15971191      -1.20094846       0.00000000
Si      -3.23990900      -1.46486196      -0.16686631       0.00000000
Si      -3.24546389       0.23675886       1.46126816       0.00000000
Si      -1.01519606       0.70920144       3.49362128       0.00000000
Si       2.33274429       1.01144610      -2.70236646       0.00000000
