10
Lattice="16.28999089631971 0.0 0.0 0.0 16.28999089631971 0.0 0.0 0.0 34.433804113860816" Properties=species:S:1:pos:R:3:initial_magmoms:R:1 pbc="T T T"
Si       0.70376221      -2.09740266       0.77816997       0.00000000
Si      -0.89436824       0.36898479      -2.16771248       0.00000000
Si      -2.00273074       0.26477766       1.29023536       0.00000000
Si       1.78356115       1.60358760       0.54119640       0.00000000
Si      -0.39575415      -3.59036487      -0.62703992       0.00000000
Si      -2.18317507       2.33763129      -1.92202715       0.00000000
Si       0.92949274       0.35693019      -3.63263063       0.00000000
Si      -1.18666134      -0.34712361       3.58149640       0.00000000
Si       0.58258090       3.10984245       2.16671390       0.00000000
Si      -3.18347881       2.13115554       0.28638611       0.00000000
