10
Lattice="16.28999089631971 0.0 0.0 0.0 16.28999089631971 0.0 0.0 0.0 34.433804113860816" Properties=species:S:1:pos:R:3:initial_magmoms:R:1 pbc="T T T"
Si      -1.34270651      -1.34281728       1.36726727       0.00000000
Si       1.25573094      -1.43436708      -1.39900148       0.00000000
Si       1.37358909       1.36497887       1.36292861       0.00000000
Si      -1.40409700       1.24443287      -1.47561329       0.00000000
Si       1.61210727       0.28464236      -3.03590422       0.00000000
Si       0.39812760       2.41324037      -2.66310432       0.00000000
Si       2.72401380      -2.69087994       0.01002713       0.00000000
Si      -2.72576563      -2.69125461      -0.00676625       0.00000000
Si      -2.70166454       0.01059185       2.72530283       0.00000000
Si      -2.70880661       2.72007881      -0.02494042       0.00000000
