10
Lattice="16.28999089631971 0.0 0.0 0.0 16.28999089631971 0.0 0.0 0.0 34.433804113860816" Properties=species:S:1:pos:R:3:initial_magmoms:R:1 pbc="T T T"
Si      -1.43833599       1.18493460       1.40310943       0.00000000
Si       1.34310724       1.35786924      -1.36888221       0.00000000
Si      -1.36820754      -1.35461124      -1.36685062       0.00000000
Si       1.47160276      -1.29420792       1.41674523       0.00000000
Si      -0.07150984       2.56733658       2.72009988       0.00000000
Si       2.70925180      -2.70518256      -0.00974477       0.00000000
Si       2.69898910       0.00560376      -2.72671117       0.00000000
Si       2.69424871       2.73720870      -0.00929713       0.00000000
Si      -0.01685038      -2.70966231      -2.72798522       0.00000000
Si      -2.73800106      -2.71116099      -0.01232731       0.00000000
