10
Lattice="16.28999089631971 0.0 0.0 0.0 16.28999089631971 0.0 0.0 0.0 34.53561885213415" Properties=species:S:1:pos:R:3:initial_magmoms:R:1 pbc="T T T"
Si      -1.79725941      -0.61115682      -1.35524203       0.00000000
Si       1.45393137      -1.22991233       1.36791518       0.00000000
Si       1.80610488       0.93776643      -1.20537907       0.00000000
Si      -1.27500201       1.50286653       1.36797390       0.00000000
Si      -2.64433941      -2.45311829      -0.03495697       0.00000000
Si       0.08827551      -2.58202106       2.74487871       0.00000000
Si      -2.63148660       0.14232899       2.74726167       0.00000000
Si       2.89401624      -2.47611977      -0.25329473       0.00000000
Si       2.74981716       2.70558981       0.10600023       0.00000000
Si      -2.64277557       2.80824939      -0.16502509       0.00000000
