10
Lattice="16.28999089631971 0.0 0.0 0.0 16.28999089631971 0.0 0.0 0.0 34.53561885213415" Properties=species:S:1:pos:R:3:initial_magmoms:R:1 pbc="T T T"
Si       1.35814617       1.35749457       1.35707790       0.00000000
Si      -1.35738054       1.35723393      -1.35811397       0.00000000
Si       1.35742941      -1.35772263      -1.35794129       0.00000000
Si      -1.35764118      -1.35909099       1.35877015       0.00000000
Si       2.71399545      -0.00128691      -2.71488105       0.00000000
Si      -2.71495656       2.71450044       0.00006907       0.00000000
Si       2.71454931       0.00091224       2.71495012       0.00000000
Si       2.71516833       2.71466334       0.00000000       0.00000000
Si      -0.00042354       2.71425609      -2.71560630       0.00000000
Si      -2.71524978      -0.00043983      -2.71467384       0.00000000
