10
Lattice="16.28999089631971 0.0 0.0 0.0 16.28999089631971 0.0 0.0 0.0 34.53561885213415" Properties=species:S:1:pos:R:3:initial_magmoms:R:1 pbc="T T T"
Si      -1.23386976       1.36717083      -1.42715071       0.00000000
Si       1.63494585       0.90173295       1.45678229       0.00000000
Si      -1.66649958      -0.98790705       1.42121058       0.00000000
Si       1.47375630      -1.34861652      -1.42020905       0.00000000
Si       0.19106541      -1.21917618       3.02618529       0.00000000
Si      -2.54260836       2.67812487       0.11009961       0.00000000
Si      -2.58302385      -0.00327429      -2.79186099       0.00000000
Si      -2.60506422      -2.80266192       0.06385639       0.00000000
Si       2.88984600       2.51675613       0.10757851       0.00000000
Si      -2.93809698       1.29694464       2.13772147       0.00000000
