10
Lattice="16.28999089631971 0.0 0.0 0.0 16.28999089631971 0.0 0.0 0.0 34.53561885213415" Properties=species:S:1:pos:R:3:initial_magmoms:R:1 pbc="T T T"
Si      -2.24474571      -0.11642463       0.52014125       0.00000000
Si       1.46577420       0.09262494       1.80362370       0.00000000
Si       0.05240493       1.27086435      -2.05493954       0.00000000
Si       1.45743372      -1.60736688      -1.60960249       0.00000000
Si      -2.06869968      -2.35268325      -0.13942037       0.00000000
Si      -0.68554836      -2.57303808      -2.04098714       0.00000000
Si       2.51126640       2.07026352       1.09353645       0.00000000
Si       1.89509715       2.65743657      -1.40708551       0.00000000
Si      -0.06139701       0.00487071       3.67334862       0.00000000
Si      -2.33849466       0.00140094       2.88873345       0.00000000
