10
Lattice="16.28999089631971 0.0 0.0 0.0 16.28999089631971 0.0 0.0 0.0 34.53561885213415" Properties=species:S:1:pos:R:3:initial_magmoms:R:1 pbc="T T T"
Si      -1.31942484      -1.54468296       1.13446118       0.00000000
Si       1.83681153       1.05568974       1.05171379       0.00000000
Si      -1.86007365       1.50066738      -0.02089406       0.00000000
Si       0.70970643      -0.58305168      -2.23076048       0.00000000
Si      -0.26544555       3.23925021       0.35709850       0.00000000
Si       0.28846332       2.38593114       2.53484677       0.00000000
Si       0.29453949      -2.84972373      -2.03753358       0.00000000
Si      -1.06264557       0.19038123      -3.51717846       0.00000000
Si      -2.71648782       1.15702983      -2.20019644       0.00000000
Si       0.19495872      -2.93158098       2.30014257       0.00000000
