10
Lattice="16.28999089631971 0.0 0.0 0.0 16.28999089631971 0.0 0.0 0.0 34.53561885213415" Properties=species:S:1:pos:R:3:initial_magmoms:R:1 pbc="T T T"
Si      -0.46662705       2.29234509      -0.36538705       0.00000000
Si       2.23822971       0.09270639       0.77870957       0.00000000
Si      -1.45974690      -1.37217186       1.27080788       0.00000000
Si      -0.29466981      -1.32786306      -2.00071859       0.00000000
Si       1.84601538      -2.35618234      -1.78970584       0.00000000
Si      -1.58605141       2.14614234      -2.50559508       0.00000000
Si      -0.90467655      -3.58137768       0.51786189       0.00000000
Si      -3.62555846      -0.66135771       0.69378643       0.00000000
Si       2.13827427      -0.33156666       3.07823050       0.00000000
Si       1.68583581       3.32711847      -0.49997243       0.00000000
