10
Lattice="16.28999089631971 0.0 0.0 0.0 16.28999089631971 0.0 0.0 0.0 34.53561885213415" Properties=species:S:1:pos:R:3:initial_magmoms:R:1 pbc="T T T"
Si      -1.33327134      -1.35892809      -1.36882002       0.00000000
Si       1.42529355      -1.26646605       1.39523978       0.00000000
Si       1.38013767       1.35650762      -1.37027051       0.00000000
Si      -1.34899119       1.35228264       1.52509378       0.00000000
Si       0.55263825       2.15519048       2.81924775       0.00000000
Si       2.36084454       0.36582453       2.84532216       0.00000000
Si      -2.67846370       2.72576565       0.00759784       0.00000000
Si      -2.69142240      -0.00223173      -2.73035302       0.00000000
Si      -2.70202882      -2.72113047       0.02825015       0.00000000
Si       0.02381598       2.71432355      -2.72962777       0.00000000
