10
Lattice="16.28999089631971 0.0 0.0 0.0 16.28999089631971 0.0 0.0 0.0 34.53561885213415" Properties=species:S:1:pos:R:3:initial_magmoms:R:1 pbc="T T T"
Si       2.00023281      -0.97669953      -0.63362535       0.00000000
Si      -1.33600806      -1.36233270       1.33352460       0.00000000
Si       0.51121278       2.10682547       0.89796113       0.00000000
Si      -1.15639452       0.83666647      -1.86599507       0.00000000
Si       3.05929458       0.88086939      -1.60887724       0.00000000
Si      -2.86128963       0.22744098       2.22975894       0.00000000
Si       2.37372993       2.75935400      -0.39270474       0.00000000
Si       1.29088476      -2.56412745      -2.31036512       0.00000000
Si      -2.28328785      -0.89803512      -2.78933989       0.00000000
Si       3.17347119      -1.39255065       1.49808691       0.00000000
