10
Lattice="16.28999089631971 0.0 0.0 0.0 16.28999089631971 0.0 0.0 0.0 34.53561885213415" Properties=species:S:1:pos:R:3:initial_magmoms:R:1 pbc="T T T"
Si      -1.42350165       1.24224282      -1.28841069       0.00000000
Si      -1.37647242      -1.32215341       1.35143478       0.00000000
Si       1.34372952       1.38966732       1.35426670       0.00000000
Si       1.34747622      -1.36600121      -1.53631096       0.00000000
Si       0.25572042       2.17021896      -2.55828162       0.00000000
Si       2.25401472       0.45535437      -2.68696980       0.00000000
Si      -2.36721393      -0.52558056      -2.59979000       0.00000000
Si       2.71612944      -2.66823223      -0.03396925       0.00000000
Si      -0.01998783      -2.68156598       2.70961782       0.00000000
Si       2.69687466       0.03341079       2.71131007       0.00000000
