10
Lattice="16.28999089631971 0.0 0.0 0.0 16.28999089631971 0.0 0.0 0.0 34.53561885213415" Properties=species:S:1:pos:R:3:initial_magmoms:R:1 pbc="T T T"
Si       1.35723393      -1.35661980      -1.35662894       0.00000000
Si      -1.35769005       1.35769005      -1.35638719       0.00000000
Si      -1.35951453      -1.35641291       1.35763047       0.00000000
Si       1.35764118       1.35941679       1.35897736       0.00000000
Si      -2.71492398      -0.00249237       2.71315427       0.00000000
Si       2.71534752       0.00024435      -2.71311973       0.00000000
Si       0.00027693       2.71430496      -2.71429394       0.00000000
Si      -2.71554300       0.00079821      -2.71332695       0.00000000
Si      -0.00151497      -2.71473242      -2.71481198       0.00000000
Si      -2.71554300      -2.71454300       0.00031082       0.00000000
