10
Lattice="16.28999089631971 0.0 0.0 0.0 16.28999089631971 0.0 0.0 0.0 34.53561885213415" Properties=species:S:1:pos:R:3:initial_magmoms:R:1 pbc="T T T"
Si       1.25253810       1.48723139      -1.42386983       0.00000000
Si      -1.52329419      -1.28435850      -1.37686682       0.00000000
Si      -0.11368791       0.08402219       2.48276703       0.00000000
Si       1.94662242       3.22462505       0.06979652       0.00000000
Si      -0.45082575      -2.21005194       3.09881374       0.00000000
Si       2.55332718       0.04908829      -2.86473118       0.00000000
Si      -0.16718427      -2.67781929      -2.84846490       0.00000000
Si      -0.16845489       2.75588030      -2.87308881       0.00000000
Si      -3.25412298      -2.30308413      -0.02168838       0.00000000
Si       1.05551055       3.08607860       2.37995443       0.00000000
