10
Lattice="16.28999089631971 0.0 0.0 0.0 16.28999089631971 0.0 0.0 0.0 34.53561885213415" Properties=species:S:1:pos:R:3:initial_magmoms:R:1 pbc="T T T"
Si      -0.09366750       0.42360516      -2.30439046       0.00000000
Si      -1.11570210       1.76888223       1.07657945       0.00000000
Si      -0.72687609      -2.19664853       0.50252807       0.00000000
Si       2.32282368      -0.24000057       0.44823805       0.00000000
Si      -0.69489882       0.58676580       3.05806169       0.00000000
Si       1.28568825      -1.65841322      -2.61755962       0.00000000
Si      -1.18527669      -1.64796970       2.69599006       0.00000000
Si       2.67279804      -2.29569173      -0.64864836       0.00000000
Si       3.41270613       1.21805217      -1.05972606       0.00000000
Si       1.04933664      -3.71161853       0.22227137       0.00000000
