10
Lattice="16.28999089631971 0.0 0.0 0.0 16.28999089631971 0.0 0.0 0.0 34.53561885213415" Properties=species:S:1:pos:R:3:initial_magmoms:R:1 pbc="T T T"
Si       2.12781609       0.49239946       0.80288452       0.00000000
Si       0.69537123      -2.18934898      -0.63162229       0.00000000
Si      -0.08824293       1.41133465      -1.96597574       0.00000000
Si      -1.95312213      -0.35601795       1.40615304       0.00000000
Si       3.38827113       0.18547957      -1.19196302       0.00000000
Si       2.22022926      -1.66836220      -2.30183482       0.00000000
Si      -1.33232652      -3.27444217      -1.08908135       0.00000000
Si      -2.51133156      -2.62849480       0.91757737       0.00000000
Si      -2.13206778       0.87746248      -2.97987300       0.00000000
Si      -3.70185363       0.85183831       0.52905144       0.00000000
