10
Lattice="16.28999089631971 0.0 0.0 0.0 16.28999089631971 0.0 0.0 0.0 34.53561885213415" Properties=species:S:1:pos:R:3:initial_magmoms:R:1 pbc="T T T"
Si      -1.67922207      -0.92797614       1.26987093       0.00000000
Si      -0.95270436       1.72300959      -1.36862217       0.00000000
Si       1.05555942       1.79118324       1.24181763       0.00000000
Si      -0.49910931      -1.11581613      -2.20037848       0.00000000
Si       1.99829430      -1.71486459      -0.12868818       0.00000000
Si       1.36374993       1.88558379      -2.09670249       0.00000000
Si      -0.25572042      -2.17021896       2.55828162       0.00000000
Si       1.52226792      -0.32679369      -3.04750315       0.00000000
Si       2.44521045       0.56855358       2.58687713       0.00000000
Si      -1.95611949       0.44890353      -3.15528887       0.00000000
