10
Lattice="16.28999089631971 0.0 0.0 0.0 16.28999089631971 0.0 0.0 0.0 34.53561885213415" Properties=species:S:1:pos:R:3:initial_magmoms:R:1 pbc="T T T"
Si       1.36430379       1.34278470       1.32855146       0.00000000
Si      -1.35578412       1.35382932      -1.35631812       0.00000000
Si       1.35907470      -1.35812988      -1.35517844       0.00000000
Si      -1.36313091      -1.36262592       1.36757674       0.00000000
Si       2.49429222      -0.10814931       2.75287025       0.00000000
Si       0.05903496       2.67862986       2.64187271       0.00000000
Si       0.00100998       2.71236645      -2.71401766       0.00000000
Si      -2.71357191      -0.00216657      -2.71377591       0.00000000
Si      -2.71422351       2.71396287       0.00162317       0.00000000
Si       2.71669959       2.71192662       0.00272832       0.00000000
