10
Lattice="16.28999089631971 0.0 0.0 0.0 16.28999089631971 0.0 0.0 0.0 34.53561885213415" Properties=species:S:1:pos:R:3:initial_magmoms:R:1 pbc="T T T"
Si      -2.03602750       1.10157867      -0.21477713       0.00000000
Si       0.23082115      -0.93195090      -2.17021950       0.00000000
Si       1.42243628       1.93486104      -0.14988467       0.00000000
Si      -0.29226445      -1.63072674       1.78293686       0.00000000
Si       3.43911385       0.85983507       0.62557855       0.00000000
Si      -1.96373248       1.84531491      -2.41614778       0.00000000
Si      -1.24312804      -2.76668545      -2.02592961       0.00000000
Si      -1.42127548      -3.36567364       0.32373707       0.00000000
Si      -1.78501489      -0.26622747       3.20373301       0.00000000
Si      -0.05465851       0.98298747      -3.58493738       0.00000000
