10
Lattice="16.28999089631971 0.0 0.0 0.0 16.28999089631971 0.0 0.0 0.0 34.53561885213415" Properties=species:S:1:pos:R:3:initial_magmoms:R:1 pbc="T T T"
Si       1.35578412      -1.35382932       1.35631812       0.00000000
Si      -1.35778779      -1.35599589      -1.35745779       0.00000000
Si       1.35679410       1.35853713      -1.35769954       0.00000000
Si      -1.35843939       1.36013355       1.35794129       0.00000000
Si       2.72008791      -0.01104462       2.68486958       0.00000000
Si       0.00617391       2.70655092       2.71912893       0.00000000
Si       2.71212210       2.71445157      -0.00034536       0.00000000
Si       2.71485882      -2.71195920       0.00113968       0.00000000
Si      -0.00047241      -2.71368594      -2.71422487       0.00000000
Si       2.71479366       0.00114030      -2.71436302       0.00000000
