10
Lattice="16.28999089631971 0.0 0.0 0.0 16.28999089631971 0.0 0.0 0.0 34.53561885213415" Properties=species:S:1:pos:R:3:initial_magmoms:R:1 pbc="T T T"
Si      -0.69408432      -1.73739366      -1.49366635       0.00000000
Si      -1.50394167       1.85606631      -0.33223284       0.00000000
Si       1.74234582       0.78573186      -1.55759182       0.00000000
Si      -0.89111187      -0.13854645       2.31015791       0.00000000
Si       0.20215890       1.88704989       2.96395207       0.00000000
Si       3.20012163       0.85678884       1.30206263       0.00000000
Si      -2.11507731      -0.46874475      -2.94288533       0.00000000
Si       2.48303583       2.66688477      -0.32245925       0.00000000
Si       2.39430420      -1.31994612       2.50545694       0.00000000
Si      -1.94662242      -3.22462505      -0.06979652       0.00000000
