10
Lattice="16.28999089631971 0.0 0.0 0.0 16.28999089631971 0.0 0.0 0.0 34.53561885213415" Properties=species:S:1:pos:R:3:initial_magmoms:R:1 pbc="T T T"
Si       1.09327077       2.02559634       0.65379417       0.00000000
Si       0.85937895      -2.03089059       1.05392407       0.00000000
Si       0.89111187       0.13854645      -2.31015791       0.00000000
Si      -2.79961569       0.09984141       0.33672247       0.00000000
Si      -1.16919846      -3.00205641       0.10281259       0.00000000
Si      -0.63640143       3.19477851      -0.51827632       0.00000000
Si      -0.61282980       1.99461276      -2.64239075       0.00000000
Si       3.28541607      -1.18139967       0.19529903       0.00000000
Si      -2.63109564      -2.15122482       1.92328969       0.00000000
Si      -1.05551055      -3.08607860      -2.37995443       0.00000000
