10
Lattice="16.28999089631971 0.0 0.0 0.0 16.28999089631971 0.0 0.0 0.0 34.53561885213415" Properties=species:S:1:pos:R:3:initial_magmoms:R:1 pbc="T T T"
Si      -1.35702216      -1.35716877       1.35707790       0.00000000
Si       1.35684297      -1.35723393      -1.35773408       0.00000000
Si       1.35757602       1.35734796       1.35697429       0.00000000
Si      -1.35716877       1.35726651      -1.35759594       0.00000000
Si      -0.00104256       2.71340901      -2.71387952       0.00000000
Si      -0.00061902      -2.71375110       2.71495012       0.00000000
Si       2.71451673      -0.00083079      -2.71491559       0.00000000
Si       2.71494027       2.71476108      -0.00031082       0.00000000
Si      -2.71516833      -2.71466334       0.00000000       0.00000000
Si       2.71461447      -2.71534752      -0.00069071       0.00000000
