10
Lattice="16.28999089631971 0.0 0.0 0.0 16.28999089631971 0.0 0.0 0.0 34.53561885213415" Properties=species:S:1:pos:R:3:initial_magmoms:R:1 pbc="T T T"
Si      -1.35767376      -1.35640314       1.35718151       0.00000000
Si       1.35962856      -1.35619137      -1.35614544       0.00000000
Si       1.35795069       1.35845568       1.35690522       0.00000000
Si      -1.35866745       1.36153449      -1.35863200       0.00000000
Si       0.00009774      -2.71451673       2.71422487       0.00000000
Si      -2.71451673       0.00083079       2.71491559       0.00000000
Si      -2.71555929       2.71423980       0.00103607       0.00000000
Si       2.71443528       2.71554300      -0.00020721       0.00000000
Si       2.71438641      -2.71570590       0.00027629       0.00000000
Si       0.00042354       2.71559187       2.71460477       0.00000000
