10
Lattice="16.28999089631971 0.0 0.0 0.0 16.28999089631971 0.0 0.0 0.0 34.53561885213415" Properties=species:S:1:pos:R:3:initial_magmoms:R:1 pbc="T T T"
Si      -1.04549220      -1.97763858       0.71008726       0.00000000
Si       2.26893636      -0.27582228       0.59100838       0.00000000
Si      -0.26174772       1.56040281       1.77558076       0.00000000
Si      -0.61616925       0.58717305      -2.50062195       0.00000000
Si       1.77137460       0.68189940       2.72437835       0.00000000
Si      -2.51126640      -2.07026352      -1.09353645       0.00000000
Si       0.20025297       3.61870947       0.77256223       0.00000000
Si       3.46586040       1.46246733      -0.48253194       0.00000000
Si       0.42505497      -3.78949383       1.08075826       0.00000000
Si      -1.79457156       2.74866057      -2.30145493       0.00000000
