10
Lattice="16.28999089631971 0.0 0.0 0.0 16.28999089631971 0.0 0.0 0.0 34.53561885213415" Properties=species:S:1:pos:R:3:initial_magmoms:R:1 pbc="T T T"
Si      -2.21382729      -0.22056660       0.75968043       0.00000000
Si       1.51830945      -1.56950892       0.89934255       0.00000000
Si      -0.14108769      -0.38081133      -2.33070661       0.00000000
Si       0.71164494       2.22897699       0.65445034       0.00000000
Si      -1.61163486       1.43104392      -2.70137762       0.00000000
Si      -3.13880607       1.34328969      -0.83165270       0.00000000
Si      -1.12143618       2.69239491       2.01536170       0.00000000
Si       3.16413702      -0.15135039       1.83190839       0.00000000
Si       2.49675201      -2.42554842      -1.13169833       0.00000000
Si      -2.09917827       0.76504356       2.91100894       0.00000000
