10
Lattice="16.28999089631971 0.0 0.0 0.0 16.28999089631971 0.0 0.0 0.0 34.53561885213415" Properties=species:S:1:pos:R:3:initial_magmoms:R:1 pbc="T T T"
Si      -1.18701972      -1.48320450       1.39795916       0.00000000
Si       0.26837775      -0.57915837      -2.29634365       0.00000000
Si       1.45401282       1.26211662       1.42729718       0.00000000
Si      -1.20446631       1.79483220      -1.09623023       0.00000000
Si      -2.56362246      -0.07552044       2.78520739       0.00000000
Si      -2.28439557      -3.07910322       0.05263231       0.00000000
Si       0.12667104       2.65095315       2.77780986       0.00000000
Si       0.15459210      -2.79300195       2.79494299       0.00000000
Si       2.55236607       3.03417540       0.25837220       0.00000000
Si      -1.80001242      -0.81891459      -3.45591224       0.00000000
