10
Lattice="16.28999089631971 0.0 0.0 0.0 16.28999089631971 0.0 0.0 0.0 34.53561885213415" Properties=species:S:1:pos:R:3:initial_magmoms:R:1 pbc="T T T"
Si      -1.34988714      -1.35306369      -1.38726205       0.00000000
Si       1.36269108       1.36474266      -1.38643319       0.00000000
Si      -1.35610992       1.39346079       1.47159808       0.00000000
Si       1.25931474      -1.51133733       1.49238853       0.00000000
Si      -2.69641854      -2.71622718      -0.00096700       0.00000000
Si       2.70589932      -2.71401174      -0.01892553       0.00000000
Si      -2.69658144       2.72648729      -0.02003067       0.00000000
Si       2.72051145       2.72690757      -0.01626629       0.00000000
Si       0.00583182      -2.70860346      -2.74855330       0.00000000
Si      -2.70972747       0.00514764      -2.74820794       0.00000000
