10
Lattice="16.28999089631971 0.0 0.0 0.0 16.28999089631971 0.0 0.0 0.0 34.53561885213415" Properties=species:S:1:pos:R:3:initial_magmoms:R:1 pbc="T T T"
Si       0.33713784       2.29407413      -0.61604671       0.00000000
Si      -0.32628870      -0.20017152       2.39148934       0.00000000
Si       2.39404356      -0.73067166      -0.78634195       0.00000000
Si      -2.32111323      -1.07022042      -0.68252782       0.00000000
Si      -1.14271092      -3.23170794      -0.88169484       0.00000000
Si      -1.12475934       3.14490572       1.20443038       0.00000000
Si       1.73250666       0.64498626       3.14198329       0.00000000
Si      -1.82568546       1.47786857       3.01692974       0.00000000
Si       0.45082575       2.21005194      -3.09881374       0.00000000
Si       3.74507100       1.18322156       0.02189559       0.00000000
