10
Lattice="16.28999089631971 0.0 0.0 0.0 16.28999089631971 0.0 0.0 0.0 34.53561885213415" Properties=species:S:1:pos:R:3:initial_magmoms:R:1 pbc="T T T"
Si      -0.80417214      -1.70386884       1.40245773       0.00000000
Si       1.52956584      -1.17025731      -1.41330192       0.00000000
Si       0.51864102       1.87284079       1.40463347       0.00000000
Si      -1.71593973       0.92330091      -1.39841706       0.00000000
Si      -0.19108170       1.44428769      -3.06862959       0.00000000
Si      -1.57972275      -3.22895493      -0.28350305       0.00000000
Si      -0.28349487       3.60504935       0.03608974       0.00000000
Si       0.46916829      -3.32112375      -1.49708538       0.00000000
Si      -2.14089696      -0.49917447       3.01869106       0.00000000
Si       1.45178109      -0.14590953      -3.58093125       0.00000000
