10
Lattice="16.28999089631971 0.0 0.0 0.0 16.28999089631971 0.0 0.0 0.0 34.53561885213415" Properties=species:S:1:pos:R:3:initial_magmoms:R:1 pbc="T T T"
Si       1.33253829       1.34576768       1.38595660       0.00000000
Si      -1.37994219      -1.37301445       1.38205407       0.00000000
Si      -1.36865322       1.30223102      -1.50234170       0.00000000
Si       1.61950293      -1.18853020      -1.55783702       0.00000000
Si      -0.32612580      -2.33772454      -2.51101442       0.00000000
Si      -2.07935334      -0.54443989      -2.97107474       0.00000000
Si      -2.71612944       2.66823223       0.03396925       0.00000000
Si       2.68975206       2.70073078       0.00858556       0.00000000
Si       2.70167295      -2.71834039       0.00731810       0.00000000
Si       2.69675505      -0.01251943       2.74431232       0.00000000
