10
Lattice="16.28999089631971 0.0 0.0 0.0 16.28999089631971 0.0 0.0 0.0 34.53561885213415" Properties=species:S:1:pos:R:3:initial_magmoms:R:1 pbc="T T T"
Si      -1.35314514       1.35625653      -1.35704337       0.00000000
Si       1.35179307      -1.35587534      -1.35932272       0.00000000
Si       1.35646830       1.35775521       1.35704337       0.00000000
Si      -1.35811359      -1.35686415       1.35649080       0.00000000
Si       0.00405621       2.70536175      -2.68271456       0.00000000
Si      -2.69687466      -0.03341079      -2.71131007       0.00000000
Si       2.71298547       2.71482624      -0.00096700       0.00000000
Si      -2.71534752      -0.00024435       2.71311973       0.00000000
Si       2.71527728      -0.00065160       2.71349963       0.00000000
Si      -0.00061902       2.71544526       2.71346509       0.00000000
