10
Lattice="16.28999089631971 0.0 0.0 0.0 16.28999089631971 0.0 0.0 0.0 34.53561885213415" Properties=species:S:1:pos:R:3:initial_magmoms:R:1 pbc="T T T"
Si       1.23226375      -1.75913985      -0.96817208       0.00000000
Si       1.47394919       1.83473455      -0.14428990       0.00000000
Si      -2.10997854       0.48093782      -1.03189033       0.00000000
Si      -0.17814744      -0.59898819       2.34966668       0.00000000
Si      -3.37043358       0.78785770       0.96295720       0.00000000
Si      -2.56829769      -0.94435085       2.33150093       0.00000000
Si       1.24312804       2.76668545       2.02592961       0.00000000
Si       3.42465389      -1.35899229      -0.19733664       0.00000000
Si       0.40381281      -1.77942090      -3.20794636       0.00000000
Si       0.66987738      -3.64177515       0.33820750       0.00000000
