10
Lattice="16.28999089631971 0.0 0.0 0.0 16.28999089631971 0.0 0.0 0.0 34.53561885213415" Properties=species:S:1:pos:R:3:initial_magmoms:R:1 pbc="T T T"
Si       1.66649958       0.98790705      -1.42121058       0.00000000
Si      -0.93856464      -1.81475487      -1.35735419       0.00000000
Si       1.85756499      -0.23126913       1.60497471       0.00000000
Si      -1.27159740       2.28485169       0.71651088       0.00000000
Si      -2.79747355      -1.19189043       1.50091883       0.00000000
Si       0.47441367      -0.01091430       3.50654148       0.00000000
Si      -3.25635471       1.08139536       0.92893960       0.00000000
Si      -2.28743854      -0.39234465      -2.82853784       0.00000000
Si       0.43262982       2.35507788      -2.84836129       0.00000000
Si       3.30144543       1.88964000       0.03557171       0.00000000
