10
Lattice="16.28999089631971 0.0 0.0 0.0 16.28999089631971 0.0 0.0 0.0 34.53561885213415" Properties=species:S:1:pos:R:3:initial_magmoms:R:1 pbc="T T T"
Si       1.35704994       1.33757190      -1.37918071       0.00000000
Si       1.09261917      -1.56556674       1.40273401       0.00000000
Si      -1.36003581      -1.37567421      -1.37956060       0.00000000
Si      -1.37020077       1.40804244       1.44241546       0.00000000
Si      -2.38813029      -0.38488383       2.52355362       0.00000000
Si      -0.84175317      -2.31459723       2.60571390       0.00000000
Si       2.70158314       2.69384472       0.01961624       0.00000000
Si      -2.73269637       2.69205282      -0.00901380       0.00000000
Si      -0.00483813       2.69599500      -2.73836528       0.00000000
Si       2.71056382      -0.01729998      -2.73829621       0.00000000
