10
Lattice="16.28999089631971 0.0 0.0 0.0 16.28999089631971 0.0 0.0 0.0 34.53561885213415" Properties=species:S:1:pos:R:3:initial_magmoms:R:1 pbc="T T T"
Si      -0.91333143      -2.07599760      -0.67679490       0.00000000
Si      -1.54059417       1.50403941      -1.02947284       0.00000000
Si       2.01798891       0.49275621      -1.22397755       0.00000000
Si      -0.18616212       0.06947685       2.41376482       0.00000000
Si      -2.54127258      -2.23847406       1.13259625       0.00000000
Si       2.97759113      -1.65986955       1.45940700       0.00000000
Si      -1.87260066       0.50652126      -3.16208303       0.00000000
Si      -1.58791662      -1.80292833      -2.92344177       0.00000000
Si      -0.48019662       3.65490585      -0.94568938       0.00000000
Si      -1.86654078      -1.34871426       3.17617357       0.00000000
