10
Lattice="16.28999089631971 0.0 0.0 0.0 16.28999089631971 0.0 0.0 0.0 34.53561885213415" Properties=species:S:1:pos:R:3:initial_magmoms:R:1 pbc="T T T"
Si       0.92656610      -1.20161556      -1.86050390       0.00000000
Si       1.64566860       0.31162770       1.76466750       0.00000000
Si       1.06219989       2.21128605       0.01008441       0.00000000
Si      -2.23718715       0.52773084      -0.90614607       0.00000000
Si       2.97420281      -0.05655888      -1.67069603       0.00000000
Si      -0.00379557       1.68619419       3.14971927       0.00000000
Si       2.43863648       2.23834374      -1.85946783       0.00000000
Si       3.83061698       0.28707867       0.50860634       0.00000000
Si      -2.05102503       0.45825399      -3.31991090       0.00000000
Si      -3.91756581      -0.89046027      -0.14373733       0.00000000
