10
Lattice="16.28999089631971 0.0 0.0 0.0 16.28999089631971 0.0 0.0 0.0 34.53561885213415" Properties=species:S:1:pos:R:3:initial_magmoms:R:1 pbc="T T T"
Si      -1.35312885       1.35915615       1.35593823       0.00000000
Si      -1.35555606      -1.35614250      -1.35728512       0.00000000
Si       1.35896443       1.35930276      -1.35711244       0.00000000
Si       1.36188807      -1.35842310       1.35918458       0.00000000
Si       0.00454491       2.70303228       2.70462397       0.00000000
Si      -2.71248048       2.71570590      -0.00044896       0.00000000
Si      -2.71303434       0.00174303      -2.71526094       0.00000000
Si       0.00159642      -2.71363707      -2.71477744       0.00000000
Si       2.71540195      -2.71329498       0.00006907       0.00000000
Si      -2.71555929      -2.71531494      -0.00058711       0.00000000
