10
Lattice="16.28999089631971 0.0 0.0 0.0 16.28999089631971 0.0 0.0 0.0 34.53561885213415" Properties=species:S:1:pos:R:3:initial_magmoms:R:1 pbc="T T T"
Si      -1.71582570      -0.96907581      -1.31905416       0.00000000
Si       1.76891481      -1.65208293       0.02828469       0.00000000
Si      -0.86473836       0.27935721       2.34949400       0.00000000
Si       1.02727998       1.75707198      -1.49580756       0.00000000
Si      -0.26924112      -2.17175022      -2.83036822       0.00000000
Si       1.44663345      -2.05136712       2.64964323       0.00000000
Si       2.46316203       0.53522424      -2.85509574       0.00000000
Si       0.48628908       2.19325043       3.15773154       0.00000000
Si       1.09325448      -3.45576060      -1.37893896       0.00000000
Si      -2.83338486      -2.65038300       0.37388282       0.00000000
