10
Lattice="16.28999089631971 0.0 0.0 0.0 16.28999089631971 0.0 0.0 0.0 34.53561885213415" Properties=species:S:1:pos:R:3:initial_magmoms:R:1 pbc="T T T"
Si       0.06791301      -1.16981748       2.06246831       0.00000000
Si       2.28448421       0.58961655      -0.39346453       0.00000000
Si      -1.25571465       2.03037975      -0.15278566       0.00000000
Si      -0.40768983      -1.01240721      -2.16424484       0.00000000
Si       0.15469654       0.87022809      -3.47062442       0.00000000
Si       0.95848146      -3.25995480       1.28679788       0.00000000
Si      -1.07756721       2.62936794      -2.50245234       0.00000000
Si       2.34708668       1.27037565      -2.69978898       0.00000000
Si       0.98491525       0.50500629       3.63977998       0.00000000
Si       3.62125790      -1.32265026      -0.01243283       0.00000000
