10
Lattice="16.28999089631971 0.0 0.0 0.0 16.28999089631971 0.0 0.0 0.0 34.53561885213415" Properties=species:S:1:pos:R:3:initial_magmoms:R:1 pbc="T T T"
Si       1.34962650       1.44515106       1.35945883       0.00000000
Si      -1.43792482      -1.32701598       1.40857196       0.00000000
Si       1.51233102      -1.34369694      -1.38795276       0.00000000
Si      -1.21326617       1.72620243      -1.28724684       0.00000000
Si       0.97168221       1.70165340      -2.54330800       0.00000000
Si       2.83175586       0.20098602      -2.52241394       0.00000000
Si       0.08364915      -2.52840348       2.86233238       0.00000000
Si      -2.62302299       0.19666917       2.87388800       0.00000000
Si       2.79775863       0.19321569       2.86140682       0.00000000
Si      -3.33660644      -2.24678196      -0.01336529       0.00000000
