10
Lattice="16.28999089631971 0.0 0.0 0.0 16.28999089631971 0.0 0.0 0.0 34.53561885213415" Properties=species:S:1:pos:R:3:initial_magmoms:R:1 pbc="T T T"
Si       1.35576879       1.35773892       1.35769954       0.00000000
Si       1.35709154      -1.35708732      -1.35728512       0.00000000
Si      -1.35790642      -1.35734796       1.35704337       0.00000000
Si      -1.35803674       1.35739683      -1.35714697       0.00000000
Si      -0.00042814      -2.71055826       2.71505373       0.00000000
Si       0.00046494       2.71450044      -2.71398312       0.00000000
Si       2.71443787       0.00004887      -2.71429394       0.00000000
Si       2.71442158      -2.71482624       0.00020721       0.00000000
Si       0.00225491       2.71261080       2.71681505       0.00000000
Si      -0.00176392      -2.71503801      -2.71453569       0.00000000
