10
Lattice="16.28999089631971 0.0 0.0 0.0 16.28999089631971 0.0 0.0 0.0 34.53561885213415" Properties=species:S:1:pos:R:3:initial_magmoms:R:1 pbc="T T T"
Si       1.35664749       1.35676152       1.35693976       0.00000000
Si      -1.35718506       1.35782037      -1.35776861       0.00000000
Si       1.35757602      -1.35726651      -1.35818304       0.00000000
Si      -1.35896230      -1.35725022       1.35725058       0.00000000
Si      -2.71426615      -0.00048870      -2.71443209       0.00000000
Si      -2.71247618      -0.00237834       2.71636608       0.00000000
Si       2.71495656      -2.71450044      -0.00006907       0.00000000
Si      -0.00029322      -2.71494027      -2.71474291       0.00000000
Si      -2.71473109      -2.71498914      -0.00044896       0.00000000
Si      -0.00200367       2.71552671      -2.71439755       0.00000000
