10
Lattice="16.28999089631971 0.0 0.0 0.0 16.28999089631971 0.0 0.0 0.0 34.53561885213415" Properties=species:S:1:pos:R:3:initial_magmoms:R:1 pbc="T T T"
Si       1.35351388      -1.35487188      -1.35911550       0.00000000
Si      -1.35704994      -1.33757190       1.37918071       0.00000000
Si      -1.36188807       1.35842310      -1.35918458       0.00000000
Si       1.34453320       1.35627282       1.39879695       0.00000000
Si       2.71325810      -2.71002069       0.00272832       0.00000000
Si       2.71247618       0.00237834      -2.71636608       0.00000000
Si      -0.00225491      -2.71261080      -2.71681505       0.00000000
Si      -2.71708575      -2.71324611      -0.00037989       0.00000000
Si       2.71329068       2.71847520       0.00172678       0.00000000
Si      -2.71501692       2.71757925      -0.00324635       0.00000000
