10
Lattice="16.28999089631971 0.0 0.0 0.0 16.28999089631971 0.0 0.0 0.0 34.53561885213415" Properties=species:S:1:pos:R:3:initial_magmoms:R:1 pbc="T T T"
Si       1.15238718      -2.08674900      -0.11172279       0.00000000
Si      -1.35327872       0.71185671       1.88713088       0.00000000
Si      -1.58305080      -0.43577379      -1.84213094       0.00000000
Si       1.61979615       1.84238271      -0.37668021       0.00000000
Si       0.11018556       3.38289543       0.58420485       0.00000000
Si       1.24613613      -2.20457457      -2.48031500       0.00000000
Si      -2.11460490       2.81031822       1.06870532       0.00000000
Si      -0.15232779      -0.78532461      -3.82913888       0.00000000
Si       1.52783910      -0.76172040       3.58200185       0.00000000
Si      -0.09767484       0.96554088       3.92207428       0.00000000
