10
Lattice="16.28999089631971 0.0 0.0 0.0 16.28999089631971 0.0 0.0 0.0 34.53561885213415" Properties=species:S:1:pos:R:3:initial_magmoms:R:1 pbc="T T T"
Si      -1.24897126       1.89563472       0.60889784       0.00000000
Si      -1.09004602       0.04215852      -2.09938691       0.00000000
Si       0.58819117      -2.11462119       0.89664877       0.00000000
Si       2.15077522       0.29665719      -1.07499081       0.00000000
Si       2.79582664      -1.45720566       0.37322664       0.00000000
Si      -1.40250451       2.41074081      -1.79105273       0.00000000
Si      -0.28936904      -0.25699104       3.29228239       0.00000000
Si      -1.00131439      -3.49508466      -0.18538731       0.00000000
Si       0.01359726      -1.51746237      -3.45228600       0.00000000
Si       2.13347524      -0.69657669      -3.19654960       0.00000000
