10
Lattice="16.28999089631971 0.0 0.0 0.0 16.28999089631971 0.0 0.0 0.0 34.53561885213415" Properties=species:S:1:pos:R:3:initial_magmoms:R:1 pbc="T T T"
Si      -0.76132618       2.09846151      -0.81842555       0.00000000
Si       1.25560388       0.25368417       2.03494341       0.00000000
Si      -1.75191198      -1.47898539       0.74883624       0.00000000
Si       1.35327872      -0.71185671      -1.88713088       0.00000000
Si       1.46346428       2.67103872      -1.30292602       0.00000000
Si       2.88111782      -1.47357711       1.69487098       0.00000000
Si      -0.27513158      -0.20965230       3.84948037       0.00000000
Si       2.97307487       1.13052600      -2.26381108       0.00000000
Si      -0.22977208      -1.14763050      -3.72926181       0.00000000
Si      -3.84203301      -1.14209190      -0.31555213       0.00000000
