10
Lattice="10.86 0.0 0.0 0.0 10.86 0.0 0.0 0.0 10.86" Properties=species:S:1:pos:R:3:initial_magmoms:R:1 pbc="T T T"
Si       1.35958512      -1.25253810      -1.31221380       0.00000000
Si      -1.40901984      -1.30782636       1.32374712       0.00000000
Si      -1.35541488       1.46246190      -1.31221380       0.00000000
Si       1.35958512       1.46246190       1.40278620       0.00000000
Si      -0.03553392      -2.49105594       2.65035042       0.00000000
Si       0.00208512      -2.61003810      -2.66971380       0.00000000
Si       2.78399358      -2.55429372       0.00603816       0.00000000
Si      -2.62229904       0.09754452       2.73880512       0.00000000
Si      -2.71291488       0.10496190      -2.66971380       0.00000000
Si       2.71708512       0.10496190      -2.66971380       0.00000000
