10
Lattice="10.86 0.0 0.0 0.0 10.86 0.0 0.0 0.0 10.86" Properties=species:S:1:pos:R:3:initial_magmoms:R:1 pbc="T T T"
Si       1.08443616       1.49517222       1.16613594       0.00000000
Si       1.08443616      -1.21982778      -1.54886406       0.00000000
Si      -1.63056384      -1.21982778       1.16613594       0.00000000
Si       2.44193616       0.13767222       2.52363594       0.00000000
Si       2.44193616      -2.57732778      -0.19136406       0.00000000
Si      -0.27306384      -2.57732778       2.52363594       0.00000000
Si       2.44193616       2.85267222      -0.19136406       0.00000000
Si       2.44193616       0.13767222      -2.90636406       0.00000000
Si      -0.27306384       2.85267222       2.52363594       0.00000000
Si      -2.93816214      -2.58189984      -0.09884772       0.00000000
