10
Lattice="10.86 0.0 0.0 0.0 10.86 0.0 0.0 0.0 10.86" Properties=species:S:1:pos:R:3:initial_magmoms:R:1 pbc="T T T"
Si      -1.39112256      -1.24453428       1.24427364       0.00000000
Si       1.32387744       1.47046572       1.24427364       0.00000000
Si       1.32387744      -1.24453428      -1.47072636       0.00000000
Si      -0.03362256      -2.60203428       2.60177364       0.00000000
Si       2.68137744       0.11296572       2.60177364       0.00000000
Si       2.68137744      -2.60203428      -0.11322636       0.00000000
Si      -2.74862256      -2.60203428      -0.11322636       0.00000000
Si      -2.81639982       0.10307226       2.56717368       0.00000000
Si      -0.03362256      -2.60203428      -2.82822636       0.00000000
Si       0.06992754       2.66425122       2.82414300       0.00000000
