10
Lattice="10.86 0.0 0.0 0.0 10.86 0.0 0.0 0.0 10.86" Properties=species:S:1:pos:R:3:initial_magmoms:R:1 pbc="T T T"
Si      -1.46105010      -1.19378550       1.13513064       0.00000000
Si       1.25394990       1.52121450       1.13513064       0.00000000
Si       1.25394990      -1.19378550      -1.57986936       0.00000000
Si      -0.10355010      -2.55128550       2.49263064       0.00000000
Si       2.61144990       0.16371450       2.49263064       0.00000000
Si       2.61144990      -2.55128550      -0.22236936       0.00000000
Si      -2.81855010       0.16371450       2.49263064       0.00000000
Si      -0.10355010       2.87871450       2.49263064       0.00000000
Si      -2.52730662       1.67618670      -2.34573828       0.00000000
Si      -2.88632736      -2.56117896      -0.25696932       0.00000000
