10
Lattice="16.28999089631971 0.0 0.0 0.0 16.28999089631971 0.0 0.0 0.0 34.36671206372826" Properties=species:S:1:pos:R:3:initial_magmoms:R:1 pbc="T T T"
Si       1.34421822       1.36412481       1.34762263       0.00000000
Si       1.35570267      -1.35310162      -1.35789829       0.00000000
Si      -1.35953082       1.36021032      -1.35793265       0.00000000
Si      -1.35330804      -1.36404850       1.36281273       0.00000000
Si      -2.67972129      -0.01777774       2.72552236       0.00000000
Si      -2.71344159      -2.71158988       0.00127157       0.00000000
Si       2.71453302      -2.71108489       0.00556741       0.00000000
Si      -0.00099369      -2.71157359      -2.71449064       0.00000000
Si       2.71420722       0.00395683      -2.71504050       0.00000000
Si      -2.71573848       0.00336430      -2.71497177       0.00000000
