10
Lattice="16.28999089631971 0.0 0.0 0.0 16.28999089631971 0.0 0.0 0.0 34.36671206372826" Properties=species:S:1:pos:R:3:initial_magmoms:R:1 pbc="T T T"
Si       2.31725250       0.02077138      -0.44315900       0.00000000
Si       0.44619939      -1.97905159       1.24153253       0.00000000
Si      -1.39434255       0.97365004      -1.69379872       0.00000000
Si      -1.07955459       1.16210254       1.86731634       0.00000000
Si       1.58838903      -1.91631880      -1.83435865       0.00000000
Si      -1.89845289      -2.33114365       1.75785830       0.00000000
Si       0.87415398       1.53868335       3.28786518       0.00000000
Si       0.07972326       2.30322192      -2.97956123       0.00000000
Si      -2.95718886      -0.22538355       2.32473754       0.00000000
Si       3.44950524      -0.34189208       1.58489055       0.00000000
