10
Lattice="16.28999089631971 0.0 0.0 0.0 16.28999089631971 0.0 0.0 0.0 34.36671206372826" Properties=species:S:1:pos:R:3:initial_magmoms:R:1 pbc="T T T"
Si       1.21503852      -1.33900705      -1.49265024       0.00000000
Si      -1.47406581      -1.32957188       1.28576252       0.00000000
Si       1.86261489       0.91655685       1.31466494       0.00000000
Si      -1.47852927       1.36713825      -1.45209750       0.00000000
Si       2.68302816      -2.52673538      -0.14403097       0.00000000
Si      -0.07972326      -2.30322192       2.97956123       0.00000000
Si       2.65727367       2.71345788      -0.02907425       0.00000000
Si       2.58593976       0.01671354      -2.84047907       0.00000000
Si       3.57291828      -0.68711220       1.28101991       0.00000000
Si      -2.80890099      -2.72090960      -0.11475052       0.00000000
