10
Lattice="16.28999089631971 0.0 0.0 0.0 16.28999089631971 0.0 0.0 0.0 34.36671206372826" Properties=species:S:1:pos:R:3:initial_magmoms:R:1 pbc="T T T"
Si       0.74355705       1.85396653       1.20647847       0.00000000
Si       1.95673851      -1.31350084      -0.23829891       0.00000000
Si      -0.57515103       0.39166862      -2.26514562       0.00000000
Si      -1.27151595      -1.44540097       1.41271322       0.00000000
Si      -2.17152216      -1.31152975      -2.44584590       0.00000000
Si      -2.84987034       0.17734760       2.16379813       0.00000000
Si       1.47781251      -2.46940666      -2.22978226       0.00000000
Si       0.30843486      -1.89748105       3.13730453       0.00000000
Si      -0.79506603      -3.15589984      -1.84198806       0.00000000
Si       2.17222263      -2.59479079       1.72971195       0.00000000
