10
Lattice="16.28999089631971 0.0 0.0 0.0 16.28999089631971 0.0 0.0 0.0 34.36671206372826" Properties=species:S:1:pos:R:3:initial_magmoms:R:1 pbc="T T T"
Si       1.35208629       1.34908893      -1.36762063       0.00000000
Si       1.35236322      -1.36146933       1.35975409       0.00000000
Si      -1.36264221       1.35641943       1.35855125       0.00000000
Si      -1.38810348      -1.36806678      -1.34269444       0.00000000
Si      -0.01384650      -2.72609892      -2.58331282       0.00000000
Si      -0.10236636       2.45687409      -2.90633604       0.00000000
Si       2.70516627      -2.71132389       0.00498318       0.00000000
Si       2.70788670       2.71588509       0.00185580       0.00000000
Si       2.70933651      -0.00182448       2.71665574       0.00000000
Si      -0.00426798       2.71300176       2.71589967       0.00000000
