10
Lattice="16.28999089631971 0.0 0.0 0.0 16.28999089631971 0.0 0.0 0.0 34.36671206372826" Properties=species:S:1:pos:R:3:initial_magmoms:R:1 pbc="T T T"
Si      -1.35705474      -1.34267067      -1.37308838       0.00000000
Si      -1.47468483       1.27014759       1.33006123       0.00000000
Si       1.35744570       1.37502261      -1.37539095       0.00000000
Si       1.42925202      -1.36047564       1.43745727       0.00000000
Si      -0.10495647       2.38508406       2.82855382       0.00000000
Si      -2.70655092      -2.70679527       0.01443403       0.00000000
Si       2.70829395       2.71094922      -0.01288752       0.00000000
Si       2.72380203      -2.70275535      -0.01381543       0.00000000
Si      -0.00112401      -2.70184311      -2.73133033       0.00000000
Si       2.71318095       0.01368360      -2.73105540       0.00000000
