10
Lattice="16.28999089631971 0.0 0.0 0.0 16.28999089631971 0.0 0.0 0.0 34.36671206372826" Properties=species:S:1:pos:R:3:initial_magmoms:R:1 pbc="T T T"
Si       1.87763427       1.38748609      -0.45742119       0.00000000
Si       0.31651470       0.90552852       2.18259674       0.00000000
Si       1.05873597      -2.10576010      -0.56687923       0.00000000
Si      -1.79107736       0.51372796      -2.64001793       0.00000000
Si       1.64449179      -0.82888474       3.03784721       0.00000000
Si       0.91877229       3.44324011      -1.14307185       0.00000000
Si       2.95718886       0.22538355      -2.32473754       0.00000000
Si      -0.09645309      -2.89388659      -2.53671154       0.00000000
Si      -0.20885409       2.46841393      -2.98389144       0.00000000
Si      -1.66776206       1.39087441       3.29893127       0.00000000
