10
Lattice="16.28999089631971 0.0 0.0 0.0 16.28999089631971 0.0 0.0 0.0 34.36671206372826" Properties=species:S:1:pos:R:3:initial_magmoms:R:1 pbc="T T T"
Si      -0.05989833       0.72563805      -2.21421413       0.00000000
Si      -1.82544111      -0.83315205       1.20689087       0.00000000
Si       0.74147193      -2.19107016      -0.42669734       0.00000000
Si       0.66134142       1.87758540       1.26490191       0.00000000
Si       1.26876294       0.54164250       3.06303802       0.00000000
Si      -2.17109862      -0.51189696      -2.53289683       0.00000000
Si      -1.21223664      -2.56765098      -1.84724617       0.00000000
Si      -0.65954952      -0.89796996       3.29229849       0.00000000
Si       2.17147329       0.04184901      -2.88402172       0.00000000
Si       2.91395520      -1.84777470      -1.33325734       0.00000000
