10
Lattice="16.28999089631971 0.0 0.0 0.0 16.28999089631971 0.0 0.0 0.0 34.36671206372826" Properties=species:S:1:pos:R:3:initial_magmoms:R:1 pbc="T T T"
Si       1.46220669      -1.21246470       1.37616420       0.00000000
Si      -1.27596312       1.49051871       1.35883650       0.00000000
Si      -0.91453689      -1.76046030      -1.35625697       0.00000000
Si       0.87073308       1.91785428      -1.18937037       0.00000000
Si       2.57425983      -2.71378368      -0.05867432       0.00000000
Si       0.09615987      -2.56427406       2.73333048       0.00000000
Si      -2.61633690       0.15064992       2.73102791       0.00000000
Si      -2.71409319      -2.82328506      -0.17486137       0.00000000
Si       2.81197980       0.15074766       2.73154341       0.00000000
Si      -2.60923446       2.94871806      -0.01026878       0.00000000
