10
Lattice="16.28999089631971 0.0 0.0 0.0 16.28999089631971 0.0 0.0 0.0 34.36671206372826" Properties=species:S:1:pos:R:3:initial_magmoms:R:1 pbc="T T T"
Si       1.82544111       0.83315205      -1.20689087       0.00000000
Si       1.16589159      -0.06481791       2.08540762       0.00000000
Si      -1.75153338       1.63781289      -0.12949384       0.00000000
Si      -0.94791510      -2.21645650      -0.41411911       0.00000000
Si       2.56691304      -1.35791811      -1.63358820       0.00000000
Si      -3.12963480       0.49660065       1.36944551       0.00000000
Si      -2.93219186      -1.73111061       0.70221542       0.00000000
Si      -2.05257258       1.36870209      -2.48622681       0.00000000
Si       0.61320447      -1.73449893      -3.05413704       0.00000000
Si       2.48678253       2.71073745       0.05801104       0.00000000
