10
Lattice="16.28999089631971 0.0 0.0 0.0 16.28999089631971 0.0 0.0 0.0 34.36671206372826" Properties=species:S:1:pos:R:3:initial_magmoms:R:1 pbc="T T T"
Si      -0.95799861       1.70947260      -1.29390743       0.00000000
Si       2.31943536       0.42507126       0.21063370       0.00000000
Si      -0.03339450      -2.30786946      -0.60492320       0.00000000
Si      -1.56776589       0.30851631       1.78497366       0.00000000
Si      -3.04859205       0.60862698      -1.63822771       0.00000000
Si      -0.28393470      -3.19831344       1.67087611       0.00000000
Si      -0.44056305       2.03748804       2.96846078       0.00000000
Si       3.25298268      -0.94851783      -1.49863005       0.00000000
Si      -2.11028805      -1.87641252       2.43911002       0.00000000
Si       0.84699855       3.44321730       1.48550196       0.00000000
