10
Lattice="16.28999089631971 0.0 0.0 0.0 16.28999089631971 0.0 0.0 0.0 34.36671206372826" Properties=species:S:1:pos:R:3:initial_magmoms:R:1 pbc="T T T"
Si      -1.35570267       1.35310162       1.35789829       0.00000000
Si      -1.35669636      -1.35847197      -1.35659235       0.00000000
Si       1.35850455       1.35705845      -1.35714222       0.00000000
Si       1.35883035      -1.35798327       1.36346570       0.00000000
Si      -0.01148445       2.71722643       2.70552092       0.00000000
Si      -2.71523349       2.71331194      -0.00003437       0.00000000
Si       0.00100998       2.71421929      -2.71476557       0.00000000
Si      -2.71438641      -0.00076563      -2.71531544       0.00000000
Si      -2.70901071      -0.01094688       2.72071101       0.00000000
Si       0.00014661      -2.71554300      -2.71455937       0.00000000
