10
Lattice="16.28999089631971 0.0 0.0 0.0 16.28999089631971 0.0 0.0 0.0 34.36671206372826" Properties=species:S:1:pos:R:3:initial_magmoms:R:1 pbc="T T T"
Si       2.13056910      -0.65508429       0.69176793       0.00000000
Si      -1.13225274       0.36266346      -2.02804955       0.00000000
Si      -1.34263809      -1.39505754       1.40054740       0.00000000
Si      -0.40286799       2.22387089       0.79641463       0.00000000
Si      -3.00330585      -1.63715952      -0.34335801       0.00000000
Si       0.63850284      -3.43819821      -0.41893045       0.00000000
Si      -2.57535126       1.88057543       1.70297463       0.00000000
Si       1.99751238      -0.97032837       3.03300150       0.00000000
Si       2.85299802      -2.41163499      -0.70334952       0.00000000
Si      -3.44950524       0.34189208      -1.58489055       0.00000000
