10
Lattice="16.28999089631971 0.0 0.0 0.0 16.28999089631971 0.0 0.0 0.0 34.36671206372826" Properties=species:S:1:pos:R:3:initial_magmoms:R:1 pbc="T T T"
Si      -0.06265134      -1.88811037       1.40755821       0.00000000
Si       2.19871017       0.28023687      -0.90401687       0.00000000
Si      -0.60771474       1.59127236       1.70816401       0.00000000
Si      -1.28739870      -0.40509972      -2.00684527       0.00000000
Si       1.16699931      -1.17999710       3.26597357       0.00000000
Si      -3.45988197      -0.74839518      -1.10028527       0.00000000
Si       1.11298167      -3.59929898       0.22974160       0.00000000
Si      -2.22386193      -2.39794990       2.14847057       0.00000000
Si       0.06988410       3.77118387       1.08533574       0.00000000
Si      -0.88453071      -2.62897061      -2.80325990       0.00000000
