10
Lattice="16.28999089631971 0.0 0.0 0.0 16.28999089631971 0.0 0.0 0.0 34.36671206372826" Properties=species:S:1:pos:R:3:initial_magmoms:R:1 pbc="T T T"
Si       0.25212033       2.10206160       0.99948765       0.00000000
Si      -1.64740770       0.68040072      -1.52330536       0.00000000
Si       2.07037755      -0.16671186      -1.16757533       0.00000000
Si      -1.51400889      -1.08018338       1.71039785       0.00000000
Si       0.71249202       3.15348336      -1.11533790       0.00000000
Si      -3.05196408       1.91962989      -0.03196106       0.00000000
Si       3.18669867      -1.66892842       0.24616890       0.00000000
Si      -0.40589793       2.10945726      -2.93313178       0.00000000
Si       0.11971521      -2.60647235       2.59915589       0.00000000
Si      -2.08252989      -3.07104686       0.40752070       0.00000000
