10
Lattice="16.28999089631971 0.0 0.0 0.0 16.28999089631971 0.0 0.0 0.0 34.36671206372826" Properties=species:S:1:pos:R:3:initial_magmoms:R:1 pbc="T T T"
Si       0.97357185      -0.93825839       1.99093348       0.00000000
Si      -1.97715965       1.02330522       0.93209449       0.00000000
Si       0.83437380       1.72690290      -1.48275262       0.00000000
Si      -0.37812348      -1.97970936      -1.34910040       0.00000000
Si      -1.32555802       2.60278362      -1.98852780       0.00000000
Si      -0.83987982       2.76539040       2.06588732       0.00000000
Si      -1.03926942      -1.53882670       3.02887749       0.00000000
Si       2.55192624      -2.56100696       1.23984856       0.00000000
Si       1.44526509       3.23858232       1.62265958       0.00000000
Si       1.65192003      -2.42713574      -2.61871056       0.00000000
