10
Lattice="16.28999089631971 0.0 0.0 0.0 16.28999089631971 0.0 0.0 0.0 34.36671206372826" Properties=species:S:1:pos:R:3:initial_magmoms:R:1 pbc="T T T"
Si      -1.35641943      -1.35708732      -1.35796702       0.00000000
Si      -1.35573525       1.36133901       1.35566445       0.00000000
Si       1.35799956       1.35847197      -1.35813885       0.00000000
Si       1.35759231      -1.36111095       1.35837942       0.00000000
Si      -0.00488700       2.69726562       2.71816788       0.00000000
Si       2.71414206      -2.71498914      -0.00113410       0.00000000
Si      -2.71503801       0.00060273      -2.71418134       0.00000000
Si       2.71573848       2.71353933      -0.00213074       0.00000000
Si       0.00197109      -2.71474479      -2.71466247       0.00000000
Si      -2.71567332       2.71393029      -0.00096227       0.00000000
