10
Lattice="16.28999089631971 0.0 0.0 0.0 16.28999089631971 0.0 0.0 0.0 34.36671206372826" Properties=species:S:1:pos:R:3:initial_magmoms:R:1 pbc="T T T"
Si       0.08656506       1.14585489       2.02533457       0.00000000
Si      -1.73680722       0.61146144      -1.47512321       0.00000000
Si      -0.67759884      -2.17991151       0.62282827       0.00000000
Si       1.75977612       1.12588335      -1.15358807       0.00000000
Si       0.72876573       3.26842560      -1.05801419       0.00000000
Si       0.54822366       3.34438587       1.34068055       0.00000000
Si      -3.60989658      -0.45092349      -0.49402176       0.00000000
Si       1.40247126       0.44642745      -3.39526122       0.00000000
Si      -3.00247506      -1.78686639       1.30411435       0.00000000
Si      -0.97639002      -0.10941993      -3.65675767       0.00000000
