10
Lattice="16.28999089631971 0.0 0.0 0.0 16.28999089631971 0.0 0.0 0.0 34.36671206372826" Properties=species:S:1:pos:R:3:initial_magmoms:R:1 pbc="T T T"
Si      -1.56665817       1.42136766      -1.02488466       0.00000000
Si      -1.24150977      -1.42905654       1.40982642       0.00000000
Si       1.11838995       1.04402610       1.81779388       0.00000000
Si       1.67325993      -0.53719533      -1.75119116       0.00000000
Si       3.18806703      -0.01488906       1.51718809       0.00000000
Si      -1.62113193       0.46648044      -3.17610457       0.00000000
Si       0.40589793      -2.10945726       2.93313178       0.00000000
Si       3.63040569       0.43473123      -0.77706616       0.00000000
Si       2.47627548      -2.27616912       1.76555645       0.00000000
Si      -1.98506682      -3.28302307       0.20334795       0.00000000
