10
Lattice="16.28999089631971 0.0 0.0 0.0 16.28999089631971 0.0 0.0 0.0 34.36671206372826" Properties=species:S:1:pos:R:3:initial_magmoms:R:1 pbc="T T T"
Si       0.42039603       2.20247316      -0.63337886       0.00000000
Si      -0.06058251       0.14107140       2.32865534       0.00000000
Si      -1.84956660      -0.36580824      -1.46897156       0.00000000
Si       1.69398081       0.83193030      -2.12070225       0.00000000
Si       2.93513220      -0.52290900       0.11942439       0.00000000
Si       2.03748804      -1.28642130       2.30281156       0.00000000
Si      -1.38919491       0.68561352      -3.58379710       0.00000000
Si       0.68048217      -0.37330164      -3.88440290       0.00000000
Si      -1.42982217       3.50256177      -1.27280626       0.00000000
Si       2.16209025       3.36701268       0.36061011       0.00000000
