10
Lattice="16.28999089631971 0.0 0.0 0.0 16.28999089631971 0.0 0.0 0.0 34.36671206372826" Properties=species:S:1:pos:R:3:initial_magmoms:R:1 pbc="T T T"
Si       1.35710361      -1.35682668       1.35724532       0.00000000
Si      -1.35754344       1.35728280       1.35817322       0.00000000
Si       1.35741312       1.35788553      -1.35800139       0.00000000
Si      -1.35948195      -1.35817875      -1.35793265       0.00000000
Si       2.71484253      -0.00175932       2.71325343       0.00000000
Si       0.00037467       2.71432125       2.71541854       0.00000000
Si      -2.71593396      -2.71469592       0.00120284       0.00000000
Si      -0.00089595      -2.71529865       2.71538417       0.00000000
Si      -2.71542897       2.71529865       0.00024057       0.00000000
Si       2.71539639       2.71554300       0.00003437       0.00000000
