10
Lattice="16.28999089631971 0.0 0.0 0.0 16.28999089631971 0.0 0.0 0.0 34.36671206372826" Properties=species:S:1:pos:R:3:initial_magmoms:R:1 pbc="T T T"
Si      -1.35084825      -1.33592661      -1.36250343       0.00000000
Si       1.36445040       1.37801997      -1.35384301       0.00000000
Si       1.28001933      -1.48108680       1.33421961       0.00000000
Si      -1.39373982       1.19128770       1.52158703       0.00000000
Si       0.52329996       2.05829037       2.66434958       0.00000000
Si       2.29351797       0.21139533       2.62506840       0.00000000
Si       0.00488700      -2.69726562      -2.71816788       0.00000000
Si      -2.70829395      -2.71094922       0.01288752       0.00000000
Si       2.73711096      -2.69068446      -0.01649603       0.00000000
Si      -2.71078632       0.01666467      -2.71913014       0.00000000
