10
Lattice="16.28999089631971 0.0 0.0 0.0 16.28999089631971 0.0 0.0 0.0 34.36671206372826" Properties=species:S:1:pos:R:3:initial_magmoms:R:1 pbc="T T T"
Si       0.76743819      -1.99585080       0.96714855       0.00000000
Si       0.04054581       1.47093813       1.83827646       0.00000000
Si      -2.19641328      -0.27222219      -0.95862560       0.00000000
Si       1.78844652       0.10601532      -1.66936397       0.00000000
Si       0.69660927      -3.42658521      -0.81655353       0.00000000
Si      -1.70390142      -0.40814595      -3.25806922       0.00000000
Si       1.15665516       1.92635766      -2.96289337       0.00000000
Si       1.77600096      -2.17588788      -2.47278942       0.00000000
Si       2.24699373       2.31880005       1.92659895       0.00000000
Si       2.98755342      -1.65079602       1.66053172       0.00000000
