10
Lattice="16.28999089631971 0.0 0.0 0.0 16.28999089631971 0.0 0.0 0.0 34.36671206372826" Properties=species:S:1:pos:R:3:initial_magmoms:R:1 pbc="T T T"
Si      -0.47892600      -1.15590582      -1.99148334       0.00000000
Si       0.21548412      -1.28128995       1.96801087       0.00000000
Si       2.14330788       0.97955910      -0.16265774       0.00000000
Si      -1.95673851       1.31350084       0.23829891       0.00000000
Si      -0.88407459       0.68073696      -3.38213312       0.00000000
Si      -3.22825446      -0.13190013       1.65101214       0.00000000
Si       2.59486668      -1.11935106       2.30483920       0.00000000
Si      -2.53188954       1.70516945      -2.02684671       0.00000000
Si       3.57596451      -0.83339640       0.15196969       0.00000000
Si      -2.75180454      -1.84239900      -1.60368915       0.00000000
