10
Lattice="16.28999089631971 0.0 0.0 0.0 16.28999089631971 0.0 0.0 0.0 34.36671206372826" Properties=species:S:1:pos:R:3:initial_magmoms:R:1 pbc="T T T"
Si      -1.35757602      -1.35724478      -1.35569882       0.00000000
Si       1.35453178      -1.35694301       1.35999466       0.00000000
Si       1.35758599       1.35802074      -1.35607685       0.00000000
Si      -1.35496962       1.36080633       1.35958226       0.00000000
Si      -0.02979441      -2.68102679       2.72669083       0.00000000
Si      -2.71235016      -2.71302035       0.00140904       0.00000000
Si      -0.00006516      -2.71481225      -2.71332217       0.00000000
Si      -2.71547784      -0.00066626      -2.71294413       0.00000000
Si       2.71492139      -0.00023783      -2.71373457       0.00000000
Si       2.71317510       2.71587369       0.00113410       0.00000000
