10
Lattice="16.28999089631971 0.0 0.0 0.0 16.28999089631971 0.0 0.0 0.0 34.36671206372826" Properties=species:S:1:pos:R:3:initial_magmoms:R:1 pbc="T T T"
Si      -1.56151053      -0.20267855      -1.74390541       0.00000000
Si       1.97888381      -0.98574211      -0.94625358       0.00000000
Si      -0.43386786      -1.67400994       1.69455479       0.00000000
Si      -0.47710152       2.42426803       0.00914155       0.00000000
Si       1.16919846       3.24176539       1.41003262       0.00000000
Si       1.31256675      -3.23755672      -1.31995741       0.00000000
Si       1.01291220      -3.46638235       0.97003536       0.00000000
Si       2.45451108       0.26862373      -2.84082274       0.00000000
Si      -0.98520291       1.40889604      -3.37017350       0.00000000
Si      -3.70949364       0.21021431      -0.81036752       0.00000000
