10
Lattice="16.28999089631971 0.0 0.0 0.0 16.28999089631971 0.0 0.0 0.0 34.36671206372826" Properties=species:S:1:pos:R:3:initial_magmoms:R:1 pbc="T T T"
Si       1.91048373       0.77379129       1.09163585       0.00000000
Si      -0.87806358      -1.85886819       1.12780683       0.00000000
Si      -0.75435732       0.32381262      -2.21145177       0.00000000
Si      -1.78166988       1.74641832       0.08072264       0.00000000
Si      -2.15669826      -0.48883032       2.52958456       0.00000000
Si       0.59549724       2.22866748       2.51697197       0.00000000
Si      -1.77010398      -1.88056647      -2.40218713       0.00000000
Si      -2.66774814      -2.64407877      -0.21879996       0.00000000
Si      -0.63946395       3.59743473       1.04796948       0.00000000
Si      -3.62890701       0.72127233       1.09377346       0.00000000
