10
Lattice="16.28999089631971 0.0 0.0 0.0 16.28999089631971 0.0 0.0 0.0 34.36671206372826" Properties=species:S:1:pos:R:3:initial_magmoms:R:1 pbc="T T T"
Si       0.61884081      -0.57265866      -2.17149628       0.00000000
Si       2.21447889       0.55853523       0.66320918       0.00000000
Si      -1.20798495       2.05390836       0.06790866       0.00000000
Si      -0.48163014      -1.88346609       1.47381727       0.00000000
Si       1.61486028      -2.54021373      -1.38566660       0.00000000
Si      -0.85068009       2.73336426       2.30958181       0.00000000
Si       3.43860723      -1.42420212       0.20035804       0.00000000
Si       0.24236262      -3.83608975       0.23668368       0.00000000
Si      -3.58684623       1.49806098      -0.19358780       0.00000000
Si       3.11635845       2.30602869      -0.72259489       0.00000000
