10
Lattice="16.28999089631971 0.0 0.0 0.0 16.28999089631971 0.0 0.0 0.0 34.36671206372826" Properties=species:S:1:pos:R:3:initial_magmoms:R:1 pbc="T T T"
Si       1.17639375      -1.47458709       1.34559500       0.00000000
Si      -1.33603914      -1.36335897      -1.35958226       0.00000000
Si       1.37925312       1.35141840      -1.35432415       0.00000000
Si      -1.56815263       1.08390402       1.47488264       0.00000000
Si       0.35011608       2.01699522       2.47921599       0.00000000
Si       2.15819205       0.30858147       2.45412828       0.00000000
Si      -0.45490477      -2.47725288       2.61541135       0.00000000
Si      -2.69781526       2.70795186       0.04151501       0.00000000
Si      -2.69390566      -0.00874773      -2.71232553       0.00000000
Si       0.02163149       2.70749574      -2.71339090       0.00000000
