10
Lattice="16.28999089631971 0.0 0.0 0.0 16.28999089631971 0.0 0.0 0.0 34.36671206372826" Properties=species:S:1:pos:R:3:initial_magmoms:R:1 pbc="T T T"
Si      -0.98179830      -1.78316856      -1.10853328       0.00000000
Si       1.81902285       0.94012848      -1.10537154       0.00000000
Si      -0.20740428       0.99321759       2.12046169       0.00000000
Si      -1.80807597       1.70841375       0.02508771       0.00000000
Si      -2.15819205      -0.30858147      -2.45412828       0.00000000
Si       0.58112946       2.40629364      -2.45230684       0.00000000
Si       3.18875121       2.05506495       0.39312104       0.00000000
Si      -2.61309682      -2.78583435       0.16128307       0.00000000
Si       1.74267162       0.10669950       3.46255128       0.00000000
Si      -0.86589495       3.63563478      -1.04883827       0.00000000
