10
Lattice="16.28999089631971 0.0 0.0 0.0 16.28999089631971 0.0 0.0 0.0 34.36671206372826" Properties=species:S:1:pos:R:3:initial_magmoms:R:1 pbc="T T T"
Si      -1.31393511       1.25850024      -1.43525780       0.00000000
Si       1.42009119       1.34855136       1.36721167       0.00000000
Si      -1.53241659      -0.94011219       1.59327603       0.00000000
Si       1.41356216      -1.48625073      -1.41924290       0.00000000
Si      -2.54330883      -2.71783989       0.12107399       0.00000000
Si       0.23600921      -1.04539446       3.57310905       0.00000000
Si       2.49991946      -0.14064786       2.80511571       0.00000000
Si      -2.79463095       2.58328819       0.18942942       0.00000000
Si       0.07039108       2.58258402      -2.80195397       0.00000000
Si       2.82438368       2.56093461      -0.07722205       0.00000000
