10
Lattice="16.28999089631971 0.0 0.0 0.0 16.28999089631971 0.0 0.0 0.0 34.36671206372826" Properties=species:S:1:pos:R:3:initial_magmoms:R:1 pbc="T T T"
Si      -1.29907863      -0.49490649       1.92158141       0.00000000
Si       1.08405063       2.03286887       0.57729235       0.00000000
Si      -1.72866222       1.28937046      -1.10097260       0.00000000
Si       0.82684782      -2.23816455      -0.71207867       0.00000000
Si      -0.76007511       2.98044188       1.74634545       0.00000000
Si      -3.40532676      -0.32229765      -1.07131411       0.00000000
Si      -0.35616456       2.58524648      -2.72332289       0.00000000
Si      -3.53838348      -0.63754173       1.26991945       0.00000000
Si      -1.22707683      -3.48040737      -0.97110073       0.00000000
Si      -1.33638273       1.36886729       3.37261354       0.00000000
