10
Lattice="16.28999089631971 0.0 0.0 0.0 16.28999089631971 0.0 0.0 0.0 34.36671206372826" Properties=species:S:1:pos:R:3:initial_magmoms:R:1 pbc="T T T"
Si      -2.05392465      -1.24224282      -0.25902205       0.00000000
Si       1.13534786      -1.63971882       1.38948131       0.00000000
Si      -0.82684782       2.23816455       0.71207867       0.00000000
Si       1.16018978      -1.11117348      -2.07987458       0.00000000
Si       2.32020655      -2.92535820      -0.32215374       0.00000000
Si      -2.12592645       1.74325806       2.63366008       0.00000000
Si      -3.50974566       0.15931620      -1.75435290       0.00000000
Si      -1.73382615      -3.42982692      -1.10361884       0.00000000
Si       2.21939100      -0.95348628       3.42079570       0.00000000
Si      -1.50658065      -2.35898748       3.12376404       0.00000000
