10
Lattice="16.28999089631971 0.0 0.0 0.0 16.28999089631971 0.0 0.0 0.0 34.36671206372826" Properties=species:S:1:pos:R:3:initial_magmoms:R:1 pbc="T T T"
Si      -0.29965455      -0.22882563       2.28999277       0.00000000
Si      -2.20498182      -0.64923795      -0.58145073       0.00000000
Si       0.66631706       2.25181461       0.37370384       0.00000000
Si       1.50854427      -1.52563995      -1.08784451       0.00000000
Si      -2.83677318       1.17110439      -1.87498012       0.00000000
Si       1.85028077       0.07379370       3.11895270       0.00000000
Si      -1.31256675       3.23755672       1.31995741       0.00000000
Si       2.60283968       1.99847872       1.83628319       0.00000000
Si      -1.00587492      -2.40604929       2.74844497       0.00000000
Si      -1.74643461       1.56354678       3.01451220       0.00000000
