10
Lattice="16.28999089631971 0.0 0.0 0.0 16.28999089631971 0.0 0.0 0.0 34.36671206372826" Properties=species:S:1:pos:R:3:initial_magmoms:R:1 pbc="T T T"
Si       0.29965455       0.22882563      -2.28999277       0.00000000
Si       2.14993532       0.30261933       0.82895992       0.00000000
Si      -0.70622037      -2.17722366       0.45845220       0.00000000
Si      -1.44678006       1.79237241       0.72451943       0.00000000
Si       0.96597161       2.48064024      -1.91628894       0.00000000
Si      -1.90532727      -0.42041232      -2.87144350       0.00000000
Si      -0.79420266      -1.98408942       2.80185087       0.00000000
Si       1.77274526       0.55684107       3.15318196       0.00000000
Si       2.90249423       2.22730435      -0.45370959       0.00000000
Si      -1.01291220       3.46638235      -0.97003536       0.00000000
