10
Lattice="16.28999089631971 0.0 0.0 0.0 16.28999089631971 0.0 0.0 0.0 34.36671206372826" Properties=species:S:1:pos:R:3:initial_magmoms:R:1 pbc="T T T"
Si      -2.20644792      -0.84786192      -0.08832250       0.00000000
Si       0.12235419       0.49420620       2.34470461       0.00000000
Si       1.44678006      -1.79237241      -0.72451943       0.00000000
Si       0.43386786       1.67400994      -1.69455479       0.00000000
Si       0.98174943      -1.62427590       3.02382558       0.00000000
Si       2.41275167       0.68826783      -2.64080836       0.00000000
Si      -2.24699373      -2.31880005      -1.92659895       0.00000000
Si      -2.16148752       0.80367271       2.97395946       0.00000000
Si      -3.63910455       0.96509358      -0.40294992       0.00000000
Si       1.74643461      -1.56354678      -3.01451220       0.00000000
