10
Lattice="16.28999089631971 0.0 0.0 0.0 16.28999089631971 0.0 0.0 0.0 34.36671206372826" Properties=species:S:1:pos:R:3:initial_magmoms:R:1 pbc="T T T"
Si      -1.21523400       1.99627434      -0.17533906       0.00000000
Si      -1.03048911      -1.05311592      -1.89697483       0.00000000
Si       2.42512488      -0.19176588      -0.20348542       0.00000000
Si       0.83849517      -0.94822461       2.09649540       0.00000000
Si       1.98408942      -2.43494775       0.55327001       0.00000000
Si       2.65096944       0.13605408      -2.48626117       0.00000000
Si      -0.49226751       2.56400269      -2.53612730       0.00000000
Si      -2.10272949       2.34340025       1.99196448       0.00000000
Si      -1.51832574       0.62651340      -3.44553974       0.00000000
Si      -3.55925097       1.62645876      -0.18314031       0.00000000
