10
Lattice="16.28999089631971 0.0 0.0 0.0 16.28999089631971 0.0 0.0 0.0 34.36671206372826" Properties=species:S:1:pos:R:3:initial_magmoms:R:1 pbc="T T T"
Si      -2.30805584       0.13058064      -0.51278600       0.00000000
Si       0.62400474       1.84140531       1.44219988       0.00000000
Si       0.10586871      -2.36092599       0.63471916       0.00000000
Si       1.65783330       1.07416260      -1.69070571       0.00000000
Si      -2.39651054       2.38861899       0.51831904       0.00000000
Si       3.60790920       0.18764451      -0.34861612       0.00000000
Si       0.40690791      -2.09181519       2.99145212       0.00000000
Si      -3.20993540      -1.61691282       0.87301807       0.00000000
Si       2.98103742       1.64203200       1.54028253       0.00000000
Si      -0.30633508       3.82555989       0.51323276       0.00000000
