10
Lattice="16.28999089631971 0.0 0.0 0.0 16.28999089631971 0.0 0.0 0.0 34.36671206372826" Properties=species:S:1:pos:R:3:initial_magmoms:R:1 pbc="T T T"
Si      -0.14120986      -2.30537709       0.33607227       0.00000000
Si       0.91523736       0.14115285      -2.15891806       0.00000000
Si       1.78035039       0.56917260       1.42391678       0.00000000
Si      -1.99448963       1.13665104       0.76338820       0.00000000
Si      -0.28974371       2.15586747      -2.62032579       0.00000000
Si      -2.41022672      -0.21427866       2.66692708       0.00000000
Si      -1.93998329      -2.40702669       1.86920651       0.00000000
Si      -0.85211361      -3.15245709      -1.71441876       0.00000000
Si      -1.20350194       3.34746468       1.22135926       0.00000000
Si       0.52598781      -2.01124485      -3.21335811       0.00000000
