10
Lattice="16.28999089631971 0.0 0.0 0.0 16.28999089631971 0.0 0.0 0.0 34.36671206372826" Properties=species:S:1:pos:R:3:initial_magmoms:R:1 pbc="T T T"
Si      -1.35517444       1.35434968      -1.36140369       0.00000000
Si       1.35753151       1.35678666       1.35762335       0.00000000
Si      -1.35745504      -1.35778775       1.35803575       0.00000000
Si       1.36036923      -1.36075253      -1.35961662       0.00000000
Si      -2.71366270      -2.71526603       0.00085917       0.00000000
Si       0.00019611       2.71504523       2.71528107       0.00000000
Si      -2.71496590      -0.00022028       2.71565910       0.00000000
Si      -0.00015262      -2.71526603       2.71541854       0.00000000
Si       2.71511731      -0.00042588       2.71559037       0.00000000
Si       2.71384669      -2.71726970       0.00099664       0.00000000
