10
Lattice="16.28999089631971 0.0 0.0 0.0 16.28999089631971 0.0 0.0 0.0 34.36671206372826" Properties=species:S:1:pos:R:3:initial_magmoms:R:1 pbc="T T T"
Si      -1.35441250      -1.34750880       1.39979820       0.00000000
Si       1.35977517       1.37161800       1.39997004       0.00000000
Si      -1.41780178       1.33874478      -1.50970301       0.00000000
Si       1.26201888      -1.60231698      -1.50591923       0.00000000
Si      -2.69126180      -2.70280422       0.03556957       0.00000000
Si       2.70014895       2.71148679       0.02777863       0.00000000
Si       2.71647153      -2.71010214       0.03279617       0.00000000
Si      -2.72543822       2.71293660       0.02188817       0.00000000
Si       0.00174303      -2.70277164       2.75896806       0.00000000
Si      -2.71423912       0.00904095       2.75869313       0.00000000
