10
Lattice="16.28999089631971 0.0 0.0 0.0 16.28999089631971 0.0 0.0 0.0 34.36671206372826" Properties=species:S:1:pos:R:3:initial_magmoms:R:1 pbc="T T T"
Si       1.44702441      -1.22934114      -1.40346857       0.00000000
Si      -1.28814152       1.48230855      -1.37683435       0.00000000
Si      -0.94218102      -1.92722103       1.07392599       0.00000000
Si       1.26029214       1.33305957       1.59310419       0.00000000
Si       0.08695602      -2.59279785      -2.75961415       0.00000000
Si       2.68491780      -2.69550630      -0.05653327       0.00000000
Si      -2.62609011       0.12142566      -2.75813638       0.00000000
Si       2.67947694       2.78168040       0.14203770       0.00000000
Si       0.86589495      -3.63563478       1.04883827       0.00000000
Si       2.06094564      -0.43746795       3.26552681       0.00000000
