10
Lattice="16.28999089631971 0.0 0.0 0.0 16.28999089631971 0.0 0.0 0.0 34.36671206372826" Properties=species:S:1:pos:R:3:initial_magmoms:R:1 pbc="T T T"
Si       2.35703268      -0.19937331       0.09808265       0.00000000
Si      -0.93033982       1.98415458      -0.92896711       0.00000000
Si      -1.03282835       0.23389182       2.14228456       0.00000000
Si      -0.62400474      -1.84140531      -1.44219988       0.00000000
Si       0.17215272      -1.78082280       2.60369229       0.00000000
Si      -3.02051528       0.54721368      -0.92388084       0.00000000
Si       1.03382856      -0.76724271      -3.13290559       0.00000000
Si       2.51085915      -1.14359058       2.30129943       0.00000000
Si       2.92767138       2.03763465      -0.47494823       0.00000000
Si       0.99756702       3.50860536      -0.18289974       0.00000000
