10
Lattice="16.28999089631971 0.0 0.0 0.0 16.28999089631971 0.0 0.0 0.0 34.36671206372826" Properties=species:S:1:pos:R:3:initial_magmoms:R:1 pbc="T T T"
Si       1.03282835      -0.23389182      -2.14228456       0.00000000
Si       1.20498107      -2.01471462       0.46140773       0.00000000
Si       0.30519152       1.62696375       1.78232742       0.00000000
Si      -2.25028172       0.65614491      -0.70372756       0.00000000
Si       0.28974371      -2.15586747       2.62032579       0.00000000
Si      -1.08237015       3.03590214      -1.35961662       0.00000000
Si       0.10248853       1.75026276      -3.07125167       0.00000000
Si      -2.06828984      -2.90577762      -0.60238007       0.00000000
Si      -1.98768692       0.31332186      -3.06616540       0.00000000
Si       0.00167298       3.72213468       0.67169776       0.00000000
