10
Lattice="16.28999089631971 0.0 0.0 0.0 16.28999089631971 0.0 0.0 0.0 34.36671206372826" Properties=species:S:1:pos:R:3:initial_magmoms:R:1 pbc="T T T"
Si      -1.90356536       0.99484659      -1.06633094       0.00000000
Si       1.10925940       1.46847834       1.55987298       0.00000000
Si      -1.39916180      -1.20430341       1.63614307       0.00000000
Si       1.25685169      -0.81239859      -2.18995122       0.00000000
Si      -3.04915961       2.48156973       0.47689445       0.00000000
Si       1.98214439       3.40571772       0.48404858       0.00000000
Si       2.52706118       0.12973356       3.06957599       0.00000000
Si      -1.46252990       3.23802846      -1.82308636       0.00000000
Si      -2.54136773      -3.05531982       0.66889623       0.00000000
Si      -0.16420061      -2.57307066       3.10514556       0.00000000
