10
Lattice="16.28999089631971 0.0 0.0 0.0 16.28999089631971 0.0 0.0 0.0 34.36671206372826" Properties=species:S:1:pos:R:3:initial_magmoms:R:1 pbc="T T T"
Si      -1.35753151      -1.35678666      -1.35762335       0.00000000
Si       1.35758579      -1.35721255       1.35796702       0.00000000
Si      -1.35733541       1.35825857       1.35765772       0.00000000
Si       1.35756950       1.35956177      -1.35748589       0.00000000
Si      -2.71492139       0.00023783       2.71373457       0.00000000
Si       2.71379345      -0.00036652       2.71500614       0.00000000
Si       2.71464053      -2.71444410      -0.00027493       0.00000000
Si      -2.71498655      -2.71457442       0.00041240       0.00000000
Si      -0.00143678       2.71928807      -2.71040100       0.00000000
Si      -0.00072490      -2.71473732       2.71517797       0.00000000
