10
Lattice="16.28999089631971 0.0 0.0 0.0 16.28999089631971 0.0 0.0 0.0 34.36671206372826" Properties=species:S:1:pos:R:3:initial_magmoms:R:1 pbc="T T T"
Si      -1.35695922      -1.35731538      -1.35738278       0.00000000
Si       1.35831070       1.35752477      -1.35721095       0.00000000
Si      -1.35966471       1.35803214       1.35855125       0.00000000
Si       1.36060759      -1.35742941       1.35903239       0.00000000
Si       2.71451836       2.71437079      -0.00017183       0.00000000
Si      -2.71426165       0.00016290      -2.71476557       0.00000000
Si      -2.71419649       2.71497515      -0.00144340       0.00000000
Si      -0.00026390      -2.71414206      -2.71517797       0.00000000
Si       0.00072490       2.71473732      -2.71517797       0.00000000
Si       0.00975608       2.70694418       2.72321979       0.00000000
