10
Lattice="16.28999089631971 0.0 0.0 0.0 16.28999089631971 0.0 0.0 0.0 34.36671206372826" Properties=species:S:1:pos:R:3:initial_magmoms:R:1 pbc="T T T"
Si      -1.07982826       1.48919922      -1.43790404       0.00000000
Si       1.15518906       0.78812649       1.96983230       0.00000000
Si       1.46207637      -1.49485185      -1.25442006       0.00000000
Si      -2.26391024      -0.90474660       0.76799334       0.00000000
Si       0.82401336      -1.19448054       3.27178155       0.00000000
Si      -2.49991946       0.14064786      -2.80511571       0.00000000
Si      -1.69462426       3.40761455      -0.10330639       0.00000000
Si       0.09645309       2.89388659       2.53671154       0.00000000
Si      -1.10389348      -2.71893132       2.52571418       0.00000000
Si       2.88126117      -0.04623102      -2.70548655       0.00000000
