10
Lattice="10.86 0.0 0.0 0.0 10.86 0.0 0.0 0.0 10.86" Properties=species:S:1:pos:R:3:initial_magmoms:R:1 pbc="T T T"
Si       1.34735676       1.60026444       0.84753612       0.00000000
Si      -1.49635596      -1.32856896       1.17144648       0.00000000
Si       1.21864404      -1.32856896      -1.54355352       0.00000000
Si      -1.49635596       1.38643104      -1.54355352       0.00000000
Si       2.58637416      -0.02122044       2.41349382       0.00000000
Si      -0.13885596      -2.68606896       2.52894648       0.00000000
Si       2.51843400       0.17706144      -2.70402054       0.00000000
Si       2.57614404      -2.68606896      -0.18605352       0.00000000
Si       0.05851368       2.80496424       2.51987838       0.00000000
Si      -2.85385596       0.02893104       2.52894648       0.00000000
