10
Lattice="10.86 0.0 0.0 0.0 10.86 0.0 0.0 0.0 10.86" Properties=species:S:1:pos:R:3:initial_magmoms:R:1 pbc="T T T"
Si       1.16013036       1.29646680       1.36656810       0.00000000
Si       1.28884308      -1.20469980      -1.67234226       0.00000000
Si      -1.55486964       1.29646680      -1.34843190       0.00000000
Si      -1.55486964      -1.41853320       1.36656810       0.00000000
Si       2.44364118       2.59943874       0.01874436       0.00000000
Si       0.05655888       2.38988418      -2.79427800       0.00000000
Si       2.51763036      -0.06103320       2.72406810       0.00000000
Si      -0.05851368      -2.80496424      -2.51987838       0.00000000
Si       2.52786048      -2.82618468      -0.10638456       0.00000000
Si      -0.19736964       2.65396680       2.72406810       0.00000000
