10
Lattice="10.86 0.0 0.0 0.0 10.86 0.0 0.0 0.0 10.86" Properties=species:S:1:pos:R:3:initial_magmoms:R:1 pbc="T T T"
Si      -1.61142852      -1.09341738       1.44584610       0.00000000
Si       1.10357148       1.62158262       1.44584610       0.00000000
Si       1.44524880      -1.88770692      -0.90838470       0.00000000
Si      -1.61142852       1.62158262      -1.26915390       0.00000000
Si       2.45257896      -0.17579082      -2.61955146       0.00000000
Si      -0.05655888      -2.38988418       2.79427800       0.00000000
Si       2.38708230       0.20955456       2.81302236       0.00000000
Si      -0.38793006      -2.48351910      -2.78441712       0.00000000
Si      -2.96892852      -2.45091738       0.08834610       0.00000000
Si       2.46107148       2.97908262       0.08834610       0.00000000
