10
Lattice="10.86 0.0 0.0 0.0 10.86 0.0 0.0 0.0 10.86" Properties=species:S:1:pos:R:3:initial_magmoms:R:1 pbc="T T T"
Si      -1.29978996      -1.50563040       1.16046702       0.00000000
Si      -1.29978996       1.20936960      -1.55453298       0.00000000
Si       1.41521004      -1.50563040      -1.55453298       0.00000000
Si       2.60840910       0.31996818       2.41822878       0.00000000
Si      -0.95811264       3.13008006       1.52123622       0.00000000
Si      -2.51843400      -0.17706144       2.70402054       0.00000000
Si      -2.79129150       2.53426788      -0.35479620       0.00000000
Si       2.76990816       2.56668498      -0.28861536       0.00000000
Si       0.05771004      -2.86313040       2.51796702       0.00000000
Si       0.05771004       2.56686960      -2.91203298       0.00000000
