10
Lattice="10.86 0.0 0.0 0.0 10.86 0.0 0.0 0.0 10.86" Properties=species:S:1:pos:R:3:initial_magmoms:R:1 pbc="T T T"
Si      -1.52749158      -0.95962218       1.69603878       0.00000000
Si       1.28482488      -1.80302064      -1.15364694       0.00000000
Si      -1.52749158       1.75537782      -1.01896122       0.00000000
Si       1.18750842       1.75537782       1.69603878       0.00000000
Si       2.47740492       0.21231300      -2.42067228       0.00000000
Si      -0.18443538      -2.44988568      -2.55591186       0.00000000
Si      -0.16358418      -2.31846882       2.77683684       0.00000000
Si       1.64259672      -3.16732986       1.03578336       0.00000000
Si      -2.88499158      -2.31712218       0.33853878       0.00000000
Si      -2.88499158       0.39787782      -2.37646122       0.00000000
