10
Lattice="10.86 0.0 0.0 0.0 10.86 0.0 0.0 0.0 10.86" Properties=species:S:1:pos:R:3:initial_magmoms:R:1 pbc="T T T"
Si      -1.27694052       1.39833360      -1.30212486       0.00000000
Si      -1.27694052      -1.31666640       1.41287514       0.00000000
Si       1.43805948       1.39833360       1.41287514       0.00000000
Si      -2.62803312      -2.67551304      -0.22132680       0.00000000
Si       2.67318900       0.17898366      -2.67208128       0.00000000
Si      -2.63444052       2.75583360       0.05537514       0.00000000
Si      -2.63444052       0.04083360       2.77037514       0.00000000
Si       0.08055948       2.75583360      -2.65962486       0.00000000
Si       0.08055948      -2.67416640       2.77037514       0.00000000
Si      -2.46444894      -0.35704422      -2.99816364       0.00000000
