10
Lattice="10.86 0.0 0.0 0.0 10.86 0.0 0.0 0.0 10.86" Properties=species:S:1:pos:R:3:initial_magmoms:R:1 pbc="T T T"
Si      -1.23512952       1.21934994      -1.34504358       0.00000000
Si       1.47987048       1.21934994       1.36995642       0.00000000
Si       1.47987048      -1.49565006      -1.34504358       0.00000000
Si      -2.59262952       2.57684994       0.01245642       0.00000000
Si       0.12237048       2.57684994      -2.70254358       0.00000000
Si       0.12237048       2.57684994       2.72745642       0.00000000
Si      -2.67318900      -0.17898366       2.67208128       0.00000000
Si       2.83737048       2.57684994       0.01245642       0.00000000
Si      -2.66023302      -0.32371488      -2.74675464       0.00000000
Si       2.83737048      -0.13815006      -2.70254358       0.00000000
