10
Lattice="16.28999089631971 0.0 0.0 0.0 16.28999089631971 0.0 0.0 0.0 34.397273925272025" Properties=species:S:1:pos:R:3:initial_magmoms:R:1 pbc="T T T"
Si       0.19943521       2.27162421       0.42363706       0.00000000
Si       2.09462521      -0.88024644       0.48011742       0.00000000
Si      -0.86767056      -0.82567494      -1.99445825       0.00000000
Si      -1.56462096      -0.86990229       1.48623824       0.00000000
Si      -2.13449403       2.83493241       0.18340637       0.00000000
Si       1.11432559       2.10538476       2.65450791       0.00000000
Si       1.52022352      -2.94598134       1.38652049       0.00000000
Si       1.83639613       2.85808050      -1.25656752       0.00000000
Si      -3.12811887      -0.21255192      -1.83041756       0.00000000
Si       2.74889677       0.41989104       2.33849997       0.00000000
