10
Lattice="16.28999089631971 0.0 0.0 0.0 16.28999089631971 0.0 0.0 0.0 34.397273925272025" Properties=species:S:1:pos:R:3:initial_magmoms:R:1 pbc="T T T"
Si       1.78375500       1.23784452      -0.82763327       0.00000000
Si       0.84551616      -1.25379243       1.79264933       0.00000000
Si      -0.65427156      -1.30013748      -1.85838256       0.00000000
Si      -1.63457118       1.68549372       0.31600793       0.00000000
Si       1.78116489       2.83788090       0.87269372       0.00000000
Si      -2.74889677      -0.41989104      -2.33849997       0.00000000
Si       2.18325096      -2.86317927       0.64519003       0.00000000
Si      -2.54946156       1.85173317      -1.91486291       0.00000000
Si       1.23659019       1.39564575      -3.18787233       0.00000000
Si      -1.22867325      -3.36587238      -0.95197949       0.00000000
