10
Lattice="16.28999089631971 0.0 0.0 0.0 16.28999089631971 0.0 0.0 0.0 34.397273925272025" Properties=species:S:1:pos:R:3:initial_magmoms:R:1 pbc="T T T"
Si      -1.91174064      -0.05668920       1.34648204       0.00000000
Si       1.19690775       1.96679011       0.54650419       0.00000000
Si       1.63457118      -1.68549372      -0.31600793       0.00000000
Si      -0.91489038       0.16623945      -2.23087084       0.00000000
Si      -1.11432559      -2.10538476      -2.65450791       0.00000000
Si      -2.72688803       2.16491561       0.93392091       0.00000000
Si       0.42844329       3.36930047      -1.22970323       0.00000000
Si       3.41832618      -0.44764920      -1.14364120       0.00000000
Si       3.41573607       1.15238718       0.55668579       0.00000000
Si       0.98029962      -2.98563120      -2.17439049       0.00000000
