10
Lattice="16.28999089631971 0.0 0.0 0.0 16.28999089631971 0.0 0.0 0.0 34.397273925272025" Properties=species:S:1:pos:R:3:initial_magmoms:R:1 pbc="T T T"
Si      -1.35094599       1.35428544      -1.35941542       0.00000000
Si      -1.35119034      -1.35128971       1.37035376       0.00000000
Si       1.36539522      -1.36080958      -1.35711080       0.00000000
Si       1.38162006       1.35257499       1.36192642       0.00000000
Si       0.26839404      -2.36623979       2.79715348       0.00000000
Si      -2.70845685       2.71221984      -0.00144469       0.00000000
Si      -2.70777267      -0.00358380      -2.71590708       0.00000000
Si       0.00640197       2.71120986      -2.71614786       0.00000000
Si      -2.70514998      -2.72255521       0.00113511       0.00000000
Si       2.72275947       2.70653463       0.00285498       0.00000000
