10
Lattice="16.28999089631971 0.0 0.0 0.0 16.28999089631971 0.0 0.0 0.0 34.397273925272025" Properties=species:S:1:pos:R:3:initial_magmoms:R:1 pbc="T T T"
Si       1.35355239      -1.35283531      -1.35955301       0.00000000
Si      -1.36073628       1.36238582      -1.36010337       0.00000000
Si       1.35395964       1.37126550       1.36921865       0.00000000
Si      -1.35571896      -1.35863455       1.39391591       0.00000000
Si       2.71083519      -2.71161679       0.00058475       0.00000000
Si      -0.00337203      -2.71072084      -2.71618225       0.00000000
Si       2.70514998       2.72255521      -0.00113511       0.00000000
Si      -2.71484253      -2.71362046       0.00230462       0.00000000
Si       2.71202436       0.00410594      -2.71659502       0.00000000
Si      -2.71713942       0.00335899      -2.71687020       0.00000000
