10
Lattice="16.28999089631971 0.0 0.0 0.0 16.28999089631971 0.0 0.0 0.0 34.397273925272025" Properties=species:S:1:pos:R:3:initial_magmoms:R:1 pbc="T T T"
Si       0.02138877      -0.63907692       2.27699761       0.00000000
Si      -0.55785105       2.20529459      -1.02940779       0.00000000
Si       0.40334040      -1.52803851      -1.96528934       0.00000000
Si       2.52307665      -0.76729551      -1.11161732       0.00000000
Si       2.99423232       1.54730891      -1.18949279       0.00000000
Si      -2.52016074       1.61849621      -2.25642803       0.00000000
Si       1.27221642       2.47126142      -2.54113443       0.00000000
Si       0.91372239       1.09529725       3.67825532       0.00000000
Si       2.03484906      -2.59358370       2.46964135       0.00000000
Si       2.24898111       2.52822755       2.35494188       0.00000000
