10
Lattice="16.28999089631971 0.0 0.0 0.0 16.28999089631971 0.0 0.0 0.0 34.397273925272025" Properties=species:S:1:pos:R:3:initial_magmoms:R:1 pbc="T T T"
Si       1.95193296       0.65691054       1.12561702       0.00000000
Si       1.41149592      -1.29125943      -1.36037855       0.00000000
Si      -1.32183576       1.42904025      -1.33808910       0.00000000
Si      -1.30937391      -1.47040056       1.35030014       0.00000000
Si      -2.49088761       0.60238791       2.48104236       0.00000000
Si       0.05002659      -2.64080448      -2.71958759       0.00000000
Si       2.72113047       2.64355749      -0.00209823       0.00000000
Si      -2.65740399       0.06540435      -2.72309611       0.00000000
Si       2.88375354      -2.57580738      -0.00546917       0.00000000
Si       0.52497783      -2.68871337       2.74246179       0.00000000
