10
Lattice="16.28999089631971 0.0 0.0 0.0 16.28999089631971 0.0 0.0 0.0 34.397273925272025" Properties=species:S:1:pos:R:3:initial_magmoms:R:1 pbc="T T T"
Si      -0.20359242      -1.10115513      -1.97753478       0.00000000
Si      -2.07940221      -0.56907486       0.78635652       0.00000000
Si       1.15272927      -1.13047713       1.69692166       0.00000000
Si       0.69895503       2.26237149      -0.11096567       0.00000000
Si      -2.01666942       0.67080591       2.72574470       0.00000000
Si       3.29953950      -0.71159607       0.87038911       0.00000000
Si      -0.02371824      -0.21015729       3.55929431       0.00000000
Si      -0.75671937      -3.27319857      -1.20232298       0.00000000
Si       1.96428078      -1.08061344      -2.81104999       0.00000000
Si       3.35839527       0.19399761      -1.30596203       0.00000000
