10
Lattice="16.28999089631971 0.0 0.0 0.0 16.28999089631971 0.0 0.0 0.0 34.397273925272025" Properties=species:S:1:pos:R:3:initial_magmoms:R:1 pbc="T T T"
Si      -2.14681023      -0.41888106       0.82653256       0.00000000
Si       0.05885577       0.90559368      -2.17635113       0.00000000
Si       1.39983228       1.29279069       1.39130171       0.00000000
Si       0.92564667      -2.16412650      -0.42576969       0.00000000
Si      -3.29953950       0.71159607      -0.87038911       0.00000000
Si       2.66421321      -0.55055313       2.21893498       0.00000000
Si       2.33945577       0.55734606      -2.65292563       0.00000000
Si      -1.91428677      -2.69164557       1.40261842       0.00000000
Si       2.15212077      -2.74532112       1.49177621       0.00000000
Si       2.32417575      -1.85318298      -2.35955112       0.00000000
