10
Lattice="16.28999089631971 0.0 0.0 0.0 16.28999089631971 0.0 0.0 0.0 34.397273925272025" Properties=species:S:1:pos:R:3:initial_magmoms:R:1 pbc="T T T"
Si       2.28242448      -0.45131445       0.10002733       0.00000000
Si       0.21398544       2.06970966      -1.09056618       0.00000000
Si      -0.60289290       0.16734717       2.28239799       0.00000000
Si      -1.33612209      -1.85383458      -0.75622449       0.00000000
Si       2.69356779      -0.39747600      -2.20056683       0.00000000
Si      -0.31315896      -3.43677949       0.61082713       0.00000000
Si      -0.35611569      -2.16973026       2.73840290       0.00000000
Si      -2.03028786       2.59551828      -1.42752206       0.00000000
Si       1.42918686       1.44586782      -3.02820010       0.00000000
Si      -3.50292015      -1.10167641      -0.19475747       0.00000000
