10
Lattice="16.28999089631971 0.0 0.0 0.0 16.28999089631971 0.0 0.0 0.0 34.397273925272025" Properties=species:S:1:pos:R:3:initial_magmoms:R:1 pbc="T T T"
Si      -1.35418770       1.35516510      -1.35889946       0.00000000
Si       1.35679410       1.35689184       1.35656045       0.00000000
Si       1.35480672      -1.35821133      -1.35821152       0.00000000
Si      -1.35835794      -1.35795069       1.35656045       0.00000000
Si      -2.71334385      -2.71446786      -0.00103192       0.00000000
Si       2.71409319      -0.00016290       2.71429040       0.00000000
Si       2.71360449      -2.71500543       0.00000000       0.00000000
Si      -0.00122175       2.71479366       2.71484076       0.00000000
Si      -2.71611315      -0.00030951       2.71374005       0.00000000
Si      -0.00084708      -2.71643895       2.71353366       0.00000000
