10
Lattice="16.28999089631971 0.0 0.0 0.0 16.28999089631971 0.0 0.0 0.0 34.397273925272025" Properties=species:S:1:pos:R:3:initial_magmoms:R:1 pbc="T T T"
Si       1.35772263      -1.35627282       1.35363668       0.00000000
Si       1.35588186       1.35971001      -1.35817712       0.00000000
Si      -1.35905841      -1.35656604      -1.35893386       0.00000000
Si      -1.36335897       1.36694277       1.35975940       0.00000000
Si       2.71243161      -2.71145421      -0.00144469       0.00000000
Si       2.72339478      -0.01031157       2.70338646       0.00000000
Si      -0.00141723      -2.71306692      -2.71549431       0.00000000
Si       2.71319724       0.00185706      -2.71576949       0.00000000
Si      -2.71702539      -2.71244790      -0.00464363       0.00000000
Si       2.71575477       2.71637379      -0.00120391       0.00000000
