10
Lattice="16.28999089631971 0.0 0.0 0.0 16.28999089631971 0.0 0.0 0.0 34.397273925272025" Properties=species:S:1:pos:R:3:initial_magmoms:R:1 pbc="T T T"
Si      -1.95193296      -0.65691054      -1.12561702       0.00000000
Si       0.76919751       1.98664695      -1.12771526       0.00000000
Si       1.91791944      -1.56090780       0.22609341       0.00000000
Si      -0.24428484      -0.87667893       2.35390996       0.00000000
Si      -0.54043704      -1.94816997      -2.48599557       0.00000000
Si       2.18085633       0.76180185      -2.49779384       0.00000000
Si       2.20680630      -0.09598068       2.70545030       0.00000000
Si       0.93182058      -3.23271792      -1.13108619       0.00000000
Si       3.56913900      -0.51917859      -1.07271398       0.00000000
Si      -3.26130687      -2.12731110       0.22468312       0.00000000
