10
Lattice="16.28999089631971 0.0 0.0 0.0 16.28999089631971 0.0 0.0 0.0 34.397273925272025" Properties=species:S:1:pos:R:3:initial_magmoms:R:1 pbc="T T T"
Si      -1.78375500      -1.23784452       0.82763327       0.00000000
Si      -0.00259011       1.60003638       1.70032699       0.00000000
Si       2.17434033      -0.90334566       0.08626841       0.00000000
Si      -0.54716481       0.15780123      -2.36023906       0.00000000
Si       3.15617121       0.60760071      -1.46491192       0.00000000
Si      -3.41832618       0.44764920       1.14364120       0.00000000
Si      -2.43802656      -2.53798200      -1.03074929       0.00000000
Si      -2.22141843       2.41443931       1.69014540       0.00000000
Si       1.80621891      -3.23402112      -0.35312261       0.00000000
Si      -0.93823884      -2.49163695       2.62028260       0.00000000
