10
Lattice="16.28999089631971 0.0 0.0 0.0 16.28999089631971 0.0 0.0 0.0 34.397273925272025" Properties=species:S:1:pos:R:3:initial_magmoms:R:1 pbc="T T T"
Si      -1.33920090      -1.35715398      -1.38321835       0.00000000
Si       1.37016819       1.36404315      -1.37664847       0.00000000
Si       1.41584535      -1.17543753       1.53288097       0.00000000
Si      -1.40838453       1.36176255       1.46608143       0.00000000
Si       2.13817653       0.85405212       2.63758444       0.00000000
Si       0.40604454       2.53259001       2.51485490       0.00000000
Si      -2.69983944      -2.68844363      -0.00632910       0.00000000
Si      -2.68172496       2.71682991      -0.01957206       0.00000000
Si      -2.69794980       0.00344534      -2.73860929       0.00000000
Si       2.73787659      -2.70900161       0.01946887       0.00000000
