10
Lattice="16.28999089631971 0.0 0.0 0.0 16.28999089631971 0.0 0.0 0.0 34.397273925272025" Properties=species:S:1:pos:R:3:initial_magmoms:R:1 pbc="T T T"
Si       1.35609363       1.35737240      -1.35865868       0.00000000
Si      -1.35852084      -1.35763969      -1.35834911       0.00000000
Si       1.35874890      -1.36059931       1.35539094       0.00000000
Si      -1.36539522       1.36080958       1.35711080       0.00000000
Si      -0.00188964      -2.69188896       2.73228019       0.00000000
Si       2.71456560      -2.71420626      -0.00275178       0.00000000
Si       2.71366965       0.00028670      -2.71611346       0.00000000
Si      -0.00110772       2.71437826      -2.71614786       0.00000000
Si       2.71495656       2.71576291      -0.00202944       0.00000000
Si      -0.00149868      -2.71502076      -2.71625105       0.00000000
