10
Lattice="16.28999089631971 0.0 0.0 0.0 16.28999089631971 0.0 0.0 0.0 34.397273925272025" Properties=species:S:1:pos:R:3:initial_magmoms:R:1 pbc="T T T"
Si       2.13755751      -0.83166966       0.62104313       0.00000000
Si      -1.39852908      -0.31094352       1.93378142       0.00000000
Si       0.01528002       2.41052904      -0.29337451       0.00000000
Si      -0.90013653      -1.27371510      -2.05802445       0.00000000
Si      -2.26531998       2.75877666       0.18319998       0.00000000
Si       3.57029559       1.05764454       0.28535994       0.00000000
Si      -2.32417575       1.85318298       2.35955112       0.00000000
Si      -3.29411493      -0.92536974      -1.72124055       0.00000000
Si       1.90301409      -1.68620722       2.91093973       0.00000000
Si      -0.17205498      -0.89213814       3.85132732       0.00000000
