10
Lattice="16.28999089631971 0.0 0.0 0.0 16.28999089631971 0.0 0.0 0.0 34.397273925272025" Properties=species:S:1:pos:R:3:initial_magmoms:R:1 pbc="T T T"
Si      -1.35734796      -1.35692442       1.35673243       0.00000000
Si      -1.35690813       1.35777150      -1.35676683       0.00000000
Si       1.35788553      -1.35764118      -1.35711080       0.00000000
Si       1.35694071       1.35938421       1.35728279       0.00000000
Si       0.00223173       2.71456560       2.71236415       0.00000000
Si      -0.00640197      -2.71120986       2.71614786       0.00000000
Si       0.00174303      -2.71415835      -2.71401522       0.00000000
Si      -2.71454931       2.71427238      -0.00020638       0.00000000
Si      -2.71417464      -2.71479366       0.00024078       0.00000000
Si      -0.00009774       2.71570590      -2.71374005       0.00000000
