10
Lattice="16.28999089631971 0.0 0.0 0.0 16.28999089631971 0.0 0.0 0.0 34.397273925272025" Properties=species:S:1:pos:R:3:initial_magmoms:R:1 pbc="T T T"
Si      -1.35470898       1.35518139       1.35508136       0.00000000
Si       1.35848826       1.35560493      -1.35697321       0.00000000
Si      -1.35694071      -1.35938421      -1.35728279       0.00000000
Si       1.35941679      -1.36405944       1.36172004       0.00000000
Si       0.01096317       2.70114264       2.70483115       0.00000000
Si      -2.71243161       2.71145421       0.00144469       0.00000000
Si      -2.71033020      -0.00882918       2.71662942       0.00000000
Si       0.00076563       2.71331127      -2.71432480       0.00000000
Si      -2.71384884      -0.00161271      -2.71404962       0.00000000
Si       2.71573848      -0.00141723      -2.71459998       0.00000000
