10
Lattice="16.28999089631971 0.0 0.0 0.0 16.28999089631971 0.0 0.0 0.0 34.397273925272025" Properties=species:S:1:pos:R:3:initial_magmoms:R:1 pbc="T T T"
Si      -0.13242141      -0.25963002       2.33107261       0.00000000
Si      -1.86893541       1.37728692      -0.38975573       0.00000000
Si      -0.61445880      -2.15144636      -0.97884377       0.00000000
Si       2.20143060       0.93574647      -0.56026311       0.00000000
Si      -1.94536646       1.30298823       2.00952426       0.00000000
Si       0.93494826      -1.76140512      -2.71690460       0.00000000
Si       2.89725795      -1.17460674      -1.48988436       0.00000000
Si      -2.81035799       0.27031626      -2.25130284       0.00000000
Si       1.75497057       0.65567250       3.34172252       0.00000000
Si       2.59667487       2.26131264       1.72382035       0.00000000
