10
Lattice="16.28999089631971 0.0 0.0 0.0 16.28999089631971 0.0 0.0 0.0 34.397273925272025" Properties=species:S:1:pos:R:3:initial_magmoms:R:1 pbc="T T T"
Si       0.59854347       1.97662860      -1.10370595       0.00000000
Si      -1.46536695      -1.24851447      -1.39756202       0.00000000
Si       1.68886575      -1.61779248       0.51647536       0.00000000
Si      -1.12510143       1.31590620       1.68402268       0.00000000
Si      -1.64172249       2.92957731      -1.27517645       0.00000000
Si       3.39607404       0.12870729       1.19595949       0.00000000
Si      -3.04844544       2.06257464       0.55076946       0.00000000
Si      -1.67935239      -3.31822413      -0.30699584       0.00000000
Si       0.60307209      -3.76953858      -0.20696851       0.00000000
Si      -0.25016553      -1.87235631      -3.33519594       0.00000000
