10
Lattice="16.28999089631971 0.0 0.0 0.0 16.28999089631971 0.0 0.0 0.0 34.397273925272025" Properties=species:S:1:pos:R:3:initial_magmoms:R:1 pbc="T T T"
Si       1.31706279       1.39781232       1.39639049       0.00000000
Si      -1.47823605      -1.38836412       1.27981806       0.00000000
Si       1.08616833      -1.46445471      -1.57470808       0.00000000
Si      -1.05564087       1.29194361      -1.77713615       0.00000000
Si      -0.40930254       0.17816373      -3.68092313       0.00000000
Si       2.54905920      -0.03298725       2.75891199       0.00000000
Si       2.44921779      -2.85863436      -0.28439682       0.00000000
Si      -0.18292041       2.69808012       2.73844904       0.00000000
Si      -0.17774019      -2.73559599       2.74804932       0.00000000
Si       2.62938519       2.94301656       0.05540238       0.00000000
