10
Lattice="16.28999089631971 0.0 0.0 0.0 16.28999089631971 0.0 0.0 0.0 34.397273925272025" Properties=species:S:1:pos:R:3:initial_magmoms:R:1 pbc="T T T"
Si      -1.55693304      -1.11941622      -1.31628093       0.00000000
Si       1.25735994       1.41548487      -1.38244583       0.00000000
Si      -1.34736219       1.32587568       1.39555666       0.00000000
Si       1.36042677      -1.37354022       1.39191399       0.00000000
Si       0.15169248      -2.42312121      -2.70574409       0.00000000
Si      -2.67805971       2.56946472      -0.10766697       0.00000000
Si       2.65978233      -0.08000019      -2.59226742       0.00000000
Si       2.74695012       2.66808927      -0.06467723       0.00000000
Si      -0.00032580       2.68619886       2.75566691       0.00000000
Si      -2.71336014      -0.02857266       2.75614847       0.00000000
