10
Lattice="16.28999089631971 0.0 0.0 0.0 16.28999089631971 0.0 0.0 0.0 34.397273925272025" Properties=species:S:1:pos:R:3:initial_magmoms:R:1 pbc="T T T"
Si      -1.35619137      -1.35651717      -1.35717960       0.00000000
Si      -1.35702216       1.35738108       1.35790194       0.00000000
Si       1.35821133      -1.35726651       1.35742038       0.00000000
Si       1.35865116       1.35901702      -1.35673243       0.00000000
Si       2.71358820       0.00003258      -2.71501275       0.00000000
Si      -2.71419093       2.71489044       0.00024078       0.00000000
Si       2.71606428       0.00081450       2.71349926       0.00000000
Si      -2.71440270      -2.71534752       0.00003440       0.00000000
Si      -2.71464705       0.00138465      -2.71532232       0.00000000
Si      -2.71549413       0.00043983       2.71494395       0.00000000
