10
Lattice="16.28999089631971 0.0 0.0 0.0 16.28999089631971 0.0 0.0 0.0 34.397273925272025" Properties=species:S:1:pos:R:3:initial_magmoms:R:1 pbc="T T T"
Si       1.36063854       1.33128965      -1.37688925       0.00000000
Si      -1.35782037      -1.38147345      -1.37344952       0.00000000
Si       1.43661510      -1.30192938       1.37121369       0.00000000
Si      -1.09511154       1.68645876       1.42198410       0.00000000
Si      -2.71194291       0.42086844       2.45699865       0.00000000
Si       2.69983944       2.68844363       0.00632910       0.00000000
Si      -2.71469592       2.70140884      -0.00481562       0.00000000
Si       0.00188964       2.69188896      -2.73228019       0.00000000
Si      -2.71510317      -0.02269197      -2.73358728       0.00000000
Si       2.71645524      -0.02231730      -2.73503197       0.00000000
