10
Lattice="16.28999089631971 0.0 0.0 0.0 16.28999089631971 0.0 0.0 0.0 34.397273925272025" Properties=species:S:1:pos:R:3:initial_magmoms:R:1 pbc="T T T"
Si       1.35620227       1.35765910      -1.35742038       0.00000000
Si      -1.35879777      -1.35825109      -1.35786754       0.00000000
Si       1.35444790      -1.36018798       1.36051614       0.00000000
Si      -1.36176255       1.36047727       1.36285515       0.00000000
Si       2.71284116      -2.71509244      -0.00024078       0.00000000
Si       2.71325493       0.00005050      -2.71494395       0.00000000
Si      -0.00107514       2.71432288      -2.71518473       0.00000000
Si      -2.71531494      -2.71432681      -0.00185745       0.00000000
Si      -0.00083079      -2.71501099      -2.71501275       0.00000000
Si      -2.71492398       2.71564237      -0.00113511       0.00000000
