10
Lattice="16.28999089631971 0.0 0.0 0.0 16.28999089631971 0.0 0.0 0.0 34.397273925272025" Properties=species:S:1:pos:R:3:initial_magmoms:R:1 pbc="T T T"
Si      -1.71901854       0.54433035      -1.56490485       0.00000000
Si       1.40662521      -1.72229283      -1.07663528       0.00000000
Si       1.41892416       2.02062789      -0.38390819       0.00000000
Si      -0.41800140      -0.93569760       2.28047174       0.00000000
Si      -1.27159740      -1.19418732      -3.11646355       0.00000000
Si       1.75987386      -1.64889009       2.66874839       0.00000000
Si       1.88322174       1.64024010      -2.72089468       0.00000000
Si       2.29069980      -2.92073184       0.75209681       0.00000000
Si      -1.53386640       3.36623076       1.27968250       0.00000000
Si       3.18479015       1.93652262       1.25123594       0.00000000
