10
Lattice="16.28999089631971 0.0 0.0 0.0 16.28999089631971 0.0 0.0 0.0 34.397273925272025" Properties=species:S:1:pos:R:3:initial_magmoms:R:1 pbc="T T T"
Si       0.00796581       0.44815419       2.27985259       0.00000000
Si      -1.07818623       1.75057227      -1.13999509       0.00000000
Si       2.26799154       0.03640815      -0.67408375       0.00000000
Si      -1.07502597      -2.02263156      -0.61808496       0.00000000
Si      -0.57598182      -1.74148245      -2.87296512       0.00000000
Si      -1.37116188       0.49772466      -3.11656675       0.00000000
Si       2.07034497      -0.37970361       2.99909999       0.00000000
Si      -2.10572685      -0.25089858       3.01918801       0.00000000
Si       3.45056313       0.47788344       1.30025208       0.00000000
Si       2.85665091      -2.21587983      -0.90629988       0.00000000
