10
Lattice="16.28999089631971 0.0 0.0 0.0 16.28999089631971 0.0 0.0 0.0 34.397273925272025" Properties=species:S:1:pos:R:3:initial_magmoms:R:1 pbc="T T T"
Si       0.25462899      -2.31262614       0.10855786       0.00000000
Si      -1.07750205       0.85955814      -1.94231195       0.00000000
Si       2.23370176       0.82934019      -0.20112097       0.00000000
Si      -1.46670273       0.68346324       1.77156379       0.00000000
Si       1.75391076       3.12008886      -0.08705955       0.00000000
Si      -1.87942617      -3.03984432      -0.66630997       0.00000000
Si       2.62557074       0.61672311      -2.56156642       0.00000000
Si      -0.50653755       3.73321188       0.07698114       0.00000000
Si      -0.94674222       2.91081123       2.20225230       0.00000000
Si      -2.22539319       2.79264357      -1.24955047       0.00000000
