10
Lattice="16.28999089631971 0.0 0.0 0.0 16.28999089631971 0.0 0.0 0.0 34.397273925272025" Properties=species:S:1:pos:R:3:initial_magmoms:R:1 pbc="T T T"
Si       1.35677781      -1.35710654      -1.35762676       0.00000000
Si       1.35640314       1.35902683       1.35676683       0.00000000
Si      -1.35958458      -1.35658526       1.35748917       0.00000000
Si      -1.35917081       1.35855768      -1.35721400       0.00000000
Si       2.71376739      -2.71407983       0.00068795       0.00000000
Si      -0.00231318      -2.71440563      -2.71487516       0.00000000
Si       2.71451673       0.00089277      -2.71515033       0.00000000
Si      -2.71494746       0.00103963      -2.71477196       0.00000000
Si       2.71451673       2.71561242      -0.00017199       0.00000000
Si      -0.00125433       2.71623144      -2.71401522       0.00000000
