10
Lattice="16.28999089631971 0.0 0.0 0.0 16.28999089631971 0.0 0.0 0.0 34.397273925272025" Properties=species:S:1:pos:R:3:initial_magmoms:R:1 pbc="T T T"
Si      -1.37051028      -1.21691187      -1.38971531       0.00000000
Si       1.25651286      -1.46782674       1.31109067       0.00000000
Si      -1.46456874       1.26817650       1.30977325       0.00000000
Si       1.71009162       1.11470841      -1.53747443       0.00000000
Si       0.30444381      -2.09012103      -2.87504757       0.00000000
Si      -0.16521318       2.56171653      -2.67440816       0.00000000
Si       2.60731224      -0.10696014       2.67218468       0.00000000
Si      -0.11012040       2.61179199       2.67431731       0.00000000
Si       2.69366553       2.71050939      -0.09452032       0.00000000
Si       2.66756895      -2.77185753      -0.13243990       0.00000000
