10
Lattice="16.28999089631971 0.0 0.0 0.0 16.28999089631971 0.0 0.0 0.0 34.397273925272025" Properties=species:S:1:pos:R:3:initial_magmoms:R:1 pbc="T T T"
Si       2.17749149      -0.93434553      -0.03061359       0.00000000
Si       0.32411400       2.15476694       0.96009725       0.00000000
Si      -0.89489115       0.37575526      -2.17800220       0.00000000
Si      -1.45705905      -1.24504470       1.45173776       0.00000000
Si       1.30411943      -3.02792004      -0.53040626       0.00000000
Si       0.13888854       2.45249927      -2.57793953       0.00000000
Si      -0.63938250      -0.55097667       3.50161005       0.00000000
Si      -0.58780836       1.78657221       3.11140715       0.00000000
Si      -0.56265660      -3.12792435      -1.96814432       0.00000000
Si       2.98757690      -0.52175241      -2.22791268       0.00000000
