10
Lattice="16.28999089631971 0.0 0.0 0.0 16.28999089631971 0.0 0.0 0.0 34.397273925272025" Properties=species:S:1:pos:R:3:initial_magmoms:R:1 pbc="T T T"
Si      -2.29097673       0.10920816       0.44344990       0.00000000
Si       0.14040351       1.62859275      -1.67776237       0.00000000
Si       1.86677603       0.10000431       1.43773806       0.00000000
Si       0.05802498      -2.39203989       0.00454044       0.00000000
Si      -0.33223455       3.50367961      -0.20985789       0.00000000
Si       2.55398597       1.37049399      -2.05819643       0.00000000
Si       3.33211040      -1.22528493       0.18681170       0.00000000
Si      -1.07035074      -0.47053665       3.45593044       0.00000000
Si       1.19009757      -1.08365967       3.29188975       0.00000000
Si      -3.29452218       0.14761998      -1.73272925       0.00000000
