10
Lattice="16.28999089631971 0.0 0.0 0.0 16.28999089631971 0.0 0.0 0.0 34.397273925272025" Properties=species:S:1:pos:R:3:initial_magmoms:R:1 pbc="T T T"
Si       1.92236661      -0.50464791       1.18474597       0.00000000
Si      -1.39623938       0.76545081       1.76351482       0.00000000
Si      -0.91633598      -2.15590005      -0.41713597       0.00000000
Si       0.50858032       1.42951266      -1.83464842       0.00000000
Si      -3.09421124      -1.44270756      -0.80541262       0.00000000
Si      -3.53029454       0.03823263       0.98864700       0.00000000
Si       2.02048128      -2.89051389       1.23376211       0.00000000
Si       1.98509940       0.73523286       3.12413415       0.00000000
Si       2.29239396       0.08987193      -3.06583074       0.00000000
Si      -1.65086837       3.07807695       1.65495697       0.00000000
