10
Lattice="16.28999089631971 0.0 0.0 0.0 16.28999089631971 0.0 0.0 0.0 34.397273925272025" Properties=species:S:1:pos:R:3:initial_magmoms:R:1 pbc="T T T"
Si       1.50578244      -1.12660011       1.48668541       0.00000000
Si      -1.78381364       1.33964073       1.23118231       0.00000000
Si      -0.04290786      -2.57250051      -1.20961521       0.00000000
Si       1.94111640       2.57535126      -0.12341749       0.00000000
Si      -1.65343500      -1.34832330      -2.67545586       0.00000000
Si       1.51254279       0.92321946      -2.96442752       0.00000000
Si       0.33102909       2.99600793      -1.83368530       0.00000000
Si       3.34689453      -0.29509335      -1.57226587       0.00000000
Si      -2.29239396      -0.08987193       3.06583074       0.00000000
Si      -3.54967964       1.42374600      -0.40396181       0.00000000
