10
Lattice="16.28999089631971 0.0 0.0 0.0 16.28999089631971 0.0 0.0 0.0 34.397273925272025" Properties=species:S:1:pos:R:3:initial_magmoms:R:1 pbc="T T T"
Si      -1.35730561       1.35721764      -1.35721400       0.00000000
Si       1.35775521      -1.35764118      -1.35717960       0.00000000
Si      -1.35627119      -1.35726651       1.35969060       0.00000000
Si       1.35690813       1.35767376       1.35876187       0.00000000
Si      -2.71401276       0.00105885      -2.71377444       0.00000000
Si       0.00276930      -2.71415835      -2.71477196       0.00000000
Si      -0.00118917       2.71477737      -2.71446239       0.00000000
Si       2.71096551       0.00737937       2.71848687       0.00000000
Si      -2.71543085       2.71419093      -0.00006879       0.00000000
Si       2.71611315       0.00030951      -2.71374005       0.00000000
