10
Lattice="16.28999089631971 0.0 0.0 0.0 16.28999089631971 0.0 0.0 0.0 34.397273925272025" Properties=species:S:1:pos:R:3:initial_magmoms:R:1 pbc="T T T"
Si      -0.39186898       0.21261708       2.36044545       0.00000000
Si      -2.00373257       1.19498553      -0.81284243       0.00000000
Si      -0.46612206      -2.26528740      -0.92803897       0.00000000
Si       2.49347120       0.04730616      -0.26774853       0.00000000
Si       1.27035284       2.36174049      -0.63057118       0.00000000
Si      -0.87165998       2.50336575       2.47450687       0.00000000
Si      -2.62557074      -0.61672311       2.56156642       0.00000000
Si      -0.19498153       3.68702973       0.62035518       0.00000000
Si      -3.70307279       0.24283503       0.61925447       0.00000000
Si      -0.97470238      -3.69480006       0.90660946       0.00000000
