10
Lattice="16.28999089631971 0.0 0.0 0.0 16.28999089631971 0.0 0.0 0.0 34.397273925272025" Properties=species:S:1:pos:R:3:initial_magmoms:R:1 pbc="T T T"
Si       0.67667845       1.18366398      -1.85415169       0.00000000
Si       0.86767056       0.82567494       1.99445825       0.00000000
Si       0.47979100      -2.29074867      -0.11406142       0.00000000
Si      -2.26044831       0.61312302       0.16404069       0.00000000
Si      -2.70065298      -0.20927763       2.28931185       0.00000000
Si      -0.69695040      -0.04422735       3.48069649       0.00000000
Si      -1.75391076      -3.12008886       0.08705955       0.00000000
Si       0.87165998      -2.50336575      -2.47450687       0.00000000
Si      -2.08450002       2.96653932       0.12799233       0.00000000
Si      -1.19009757       1.08365967      -3.29188975       0.00000000
