10
Lattice="16.28999089631971 0.0 0.0 0.0 16.28999089631971 0.0 0.0 0.0 34.397273925272025" Properties=species:S:1:pos:R:3:initial_magmoms:R:1 pbc="T T T"
Si       1.12661640      -0.84587454       1.86237237       0.00000000
Si      -2.00328230      -1.20682836      -0.17315597       0.00000000
Si       1.36775727       0.53629938      -1.86161590       0.00000000
Si      -0.83485924       2.28535668       0.17731805       0.00000000
Si      -2.53075643      -0.50262795      -2.35655855       0.00000000
Si      -0.73501294      -1.67317848       3.10755607       0.00000000
Si       1.81692144       1.04992308       3.07268065       0.00000000
Si       0.97743258       2.77690743      -2.31796479       0.00000000
Si       1.23411411       3.61704789       0.31067635       0.00000000
Si      -1.64010978      -3.47884353      -0.54691696       0.00000000
