10
Lattice="16.28999089631971 0.0 0.0 0.0 16.28999089631971 0.0 0.0 0.0 34.397273925272025" Properties=species:S:1:pos:R:3:initial_magmoms:R:1 pbc="T T T"
Si      -0.46167326       0.92802501      -2.10556151       0.00000000
Si       0.83485924      -2.28535668      -0.17731805       0.00000000
Si       2.06897335       1.33169121       0.13335831       0.00000000
Si      -1.55407644       0.74311722       1.79413361       0.00000000
Si       1.81229182       0.49155075      -2.49528284       0.00000000
Si       2.20261651      -1.74905730      -2.03893395       0.00000000
Si       0.18068379       1.77849333       2.98435873       0.00000000
Si       1.30254514       3.15941292       1.38951305       0.00000000
Si      -1.16842306      -3.49218504      -0.35047402       0.00000000
Si      -1.57673583      -0.60448932      -3.49012135       0.00000000
