10
Lattice="16.28999089631971 0.0 0.0 0.0 16.28999089631971 0.0 0.0 0.0 34.397273925272025" Properties=species:S:1:pos:R:3:initial_magmoms:R:1 pbc="T T T"
Si      -1.73476024      -1.03537611      -1.19022511       0.00000000
Si      -1.55464171       1.14104934       1.39537779       0.00000000
Si       1.12186135       1.38091959      -1.59484567       0.00000000
Si       1.15022224      -1.59314571       1.38110636       0.00000000
Si       1.88828956      -0.44680212      -2.85100042       0.00000000
Si      -0.18068379      -1.77849333      -2.98435873       0.00000000
Si       2.57053105       2.49945615      -0.08416674       0.00000000
Si      -0.21584413       2.48393178       2.76499201       0.00000000
Si       2.50579459      -0.23108994       2.76265300       0.00000000
Si      -2.84143768       2.58473430      -0.00577187       0.00000000
