10
Lattice="16.28999089631971 0.0 0.0 0.0 16.28999089631971 0.0 0.0 0.0 34.397273925272025" Properties=species:S:1:pos:R:3:initial_magmoms:R:1 pbc="T T T"
Si      -1.35598491      -1.35539316       1.35607889       0.00000000
Si      -1.35670167       1.35848826      -1.35680123       0.00000000
Si       1.35812524      -1.35697329      -1.35714520       0.00000000
Si       1.35697028       1.35840681       1.35797074       0.00000000
Si      -0.00559278      -2.70576900       2.71604466       0.00000000
Si       0.00141809      -2.71313208      -2.71370565       0.00000000
Si      -2.71431027      -2.71296918      -0.00017199       0.00000000
Si       2.71424168       0.00058644      -2.71439359       0.00000000
Si      -2.71344690       0.00180819      -2.71528792       0.00000000
Si       2.71543085      -2.71419093       0.00006879       0.00000000
