10
Lattice="10.86 0.0 0.0 0.0 10.86 0.0 0.0 0.0 10.86" Properties=species:S:1:pos:R:3:initial_magmoms:R:1 pbc="T T T"
Si       1.26415830      -1.34218740      -1.22866782       0.00000000
Si      -1.45084170       1.37281260      -1.22866782       0.00000000
Si       1.25378700       1.20904380       1.68273528       0.00000000
Si      -1.45084170      -1.34218740       1.48633218       0.00000000
Si       2.62165830       0.01531260      -2.58616782       0.00000000
Si      -0.09334170      -2.69968740      -2.58616782       0.00000000
Si      -0.09334170       2.73031260      -2.58616782       0.00000000
Si       2.72890080      -2.61669528       0.22912428       0.00000000
Si       2.67798912       2.66931198       0.27868932       0.00000000
Si      -2.80834170       0.01531260      -2.58616782       0.00000000
