10
Lattice="10.86 0.0 0.0 0.0 10.86 0.0 0.0 0.0 10.86" Properties=species:S:1:pos:R:3:initial_magmoms:R:1 pbc="T T T"
Si       1.33496550       1.23462996       1.30287420       0.00000000
Si      -1.38003450       1.23462996      -1.41212580       0.00000000
Si      -1.38003450      -1.48037004       1.30287420       0.00000000
Si       1.32459420      -1.64413884      -1.21572270       0.00000000
Si      -0.02253450       2.59212996       2.66037420       0.00000000
Si       2.69246550       2.59212996      -0.05462580       0.00000000
Si      -2.73753450       2.59212996      -0.05462580       0.00000000
Si      -0.02253450       2.59212996      -2.76962580       0.00000000
Si       2.74879632      -0.18387066      -2.61976866       0.00000000
Si      -2.73753450      -0.12287004       2.66037420       0.00000000
