10
Lattice="16.28999089631971 0.0 0.0 0.0 16.28999089631971 0.0 0.0 0.0 34.45770212530097" Properties=species:S:1:pos:R:3:initial_magmoms:R:1 pbc="T T T"
Si      -1.35648459       1.35611155       1.36063204       0.00000000
Si       1.36005210      -1.36071328       1.35966723       0.00000000
Si      -1.36114353      -1.36816579      -1.36470150       0.00000000
Si       1.37510406       1.36730278      -1.37133461       0.00000000
Si      -2.62509766       0.09018958      -2.74832374       0.00000000
Si      -2.71322330       2.71311742       0.00747733       0.00000000
Si       2.71621089       2.71308484       0.00354915       0.00000000
Si      -2.71409319      -2.71553227       0.00534095       0.00000000
Si      -2.71235993      -0.00186521       2.71830072       0.00000000
Si       0.00223173       2.71345951       2.71802506       0.00000000
