10
Lattice="16.28999089631971 0.0 0.0 0.0 16.28999089631971 0.0 0.0 0.0 34.45770212530097" Properties=species:S:1:pos:R:3:initial_magmoms:R:1 pbc="T T T"
Si       1.78274502       0.89924058      -1.05771422       0.00000000
Si       0.58784094      -1.01105188       1.93766105       0.00000000
Si      -1.07603595      -1.74210866      -1.00402909       0.00000000
Si      -2.29148661      -0.32541556      -2.40383956       0.00000000
Si       0.43321626       2.37306204      -2.39422585       0.00000000
Si      -0.15799671       0.79193835       3.41055635       0.00000000
Si      -0.82978002      -3.07700900       1.98955437       0.00000000
Si      -3.60442102       0.95622300      -0.89410895       0.00000000
Si       3.47113836       1.66961097       0.33992542       0.00000000
Si       0.40604454      -3.04799651      -2.38199336       0.00000000
