10
Lattice="16.28999089631971 0.0 0.0 0.0 16.28999089631971 0.0 0.0 0.0 34.45770212530097" Properties=species:S:1:pos:R:3:initial_magmoms:R:1 pbc="T T T"
Si      -1.68839334      -0.77037039      -1.39763964       0.00000000
Si       1.80467136      -1.63118286       0.02456836       0.00000000
Si       0.89300151       1.81157832      -1.37358815       0.00000000
Si      -0.32995395      -2.03221497      -2.75024303       0.00000000
Si      -1.41206607       2.31762717       2.13448355       0.00000000
Si       1.06948737       2.82944268       2.03469399       0.00000000
Si       2.39269149       0.69426351      -2.74628039       0.00000000
Si       2.60851770       2.63823066       0.00568552       0.00000000
Si       0.96860340      -3.42691820      -1.29750550       0.00000000
Si       1.39808925      -2.94185508       1.99262111       0.00000000
