10
Lattice="16.28999089631971 0.0 0.0 0.0 16.28999089631971 0.0 0.0 0.0 34.45770212530097" Properties=species:S:1:pos:R:3:initial_magmoms:R:1 pbc="T T T"
Si      -0.18280638      -2.09339110       1.04072656       0.00000000
Si      -2.18217582       0.07486069      -1.01770880       0.00000000
Si       1.85785821       0.61400105      -1.45256524       0.00000000
Si       0.13157433       1.79085255       1.78770104       0.00000000
Si      -2.54596410       2.30529075      -0.63726110       0.00000000
Si      -2.21775318       2.64580062       1.69724952       0.00000000
Si       2.03732514       3.11498520       1.06760358       0.00000000
Si      -2.15715438      -0.75500470      -3.21304469       0.00000000
Si       2.37241044       2.92559766      -1.23227703       0.00000000
Si      -1.63859481      -3.61373680      -0.00137831       0.00000000
