10
Lattice="16.28999089631971 0.0 0.0 0.0 16.28999089631971 0.0 0.0 0.0 34.45770212530097" Properties=species:S:1:pos:R:3:initial_magmoms:R:1 pbc="T T T"
Si      -0.79086321      -1.78829991      -1.34138538       0.00000000
Si      -1.41538923       1.30271130       1.38910791       0.00000000
Si       1.33372746      -1.39551543       1.38235419       0.00000000
Si       0.59763123       1.96643106      -1.25434203       0.00000000
Si       0.19860768       1.15777917      -3.42879968       0.00000000
Si      -2.24075466       0.87995322      -2.90766110       0.00000000
Si      -2.66647426      -2.67262862       0.00536507       0.00000000
Si       2.61296487       2.74898637      -0.08983473       0.00000000
Si      -0.03777651       2.66610285       2.75441242       0.00000000
Si       2.67483429      -0.04973337       2.75723795       0.00000000
