10
Lattice="16.28999089631971 0.0 0.0 0.0 16.28999089631971 0.0 0.0 0.0 34.45770212530097" Properties=species:S:1:pos:R:3:initial_magmoms:R:1 pbc="T T T"
Si       1.01626794       2.08823139       0.11074712       0.00000000
Si      -0.47185614      -1.43834184       1.82308912       0.00000000
Si       1.10056869      -1.28493891      -1.68029633       0.00000000
Si      -2.11582665       0.76082445      -0.86409628       0.00000000
Si       0.78345126       2.41924419      -2.22317773       0.00000000
Si      -3.22232653       1.06663662       1.20946602       0.00000000
Si      -2.80034874      -1.11241152       2.01625911       0.00000000
Si       3.20061033       1.60780671       0.80772345       0.00000000
Si      -0.57938643      -2.77573455      -2.54542634       0.00000000
Si       1.63768257       0.41956524      -3.48157371       0.00000000
