10
Lattice="16.28999089631971 0.0 0.0 0.0 16.28999089631971 0.0 0.0 0.0 34.45770212530097" Properties=species:S:1:pos:R:3:initial_magmoms:R:1 pbc="T T T"
Si      -0.24785235      -1.72171846       1.60958908       0.00000000
Si       2.31091569      -0.33487027      -0.44302292       0.00000000
Si      -1.22117985      -0.52465855      -1.99382713       0.00000000
Si      -0.38059956       2.30594235       0.68436480       0.00000000
Si       1.44456462      -3.24717922       0.98521517       0.00000000
Si      -0.22856499      -0.57517058       3.75789018       0.00000000
Si      -0.48812985       0.96854964      -3.68415065       0.00000000
Si       3.07670859       1.32722286      -1.90072237       0.00000000
Si       2.64086964      -2.65814911      -0.97391304       0.00000000
Si      -2.70909216       2.63187267       0.87753479       0.00000000
