10
Lattice="16.28999089631971 0.0 0.0 0.0 16.28999089631971 0.0 0.0 0.0 34.45770212530097" Properties=species:S:1:pos:R:3:initial_magmoms:R:1 pbc="T T T"
Si      -0.23087817       1.65687219      -1.70259047       0.00000000
Si      -2.01173355       0.04944015       1.31893820       0.00000000
Si       0.05872545      -1.55673756      -1.85175795       0.00000000
Si       2.26183392       0.36509148       0.82915615       0.00000000
Si       2.20970592       1.74319290      -2.39364007       0.00000000
Si      -1.38047976      -3.29724261      -1.24695602       0.00000000
Si       2.26079136      -2.62088181      -1.56813644       0.00000000
Si       2.31471126       2.69757513       1.47713360       0.00000000
Si      -2.24823177      -2.03369247       2.44959941       0.00000000
Si      -1.65328839       1.36176255       3.27486184       0.00000000
