10
Lattice="16.28999089631971 0.0 0.0 0.0 16.28999089631971 0.0 0.0 0.0 34.45770212530097" Properties=species:S:1:pos:R:3:initial_magmoms:R:1 pbc="T T T"
Si      -1.43920521      -1.74050505       0.60480193       0.00000000
Si      -0.05872545       1.55673756       1.85175795       0.00000000
Si       2.20206591      -1.06414425       0.28362150       0.00000000
Si      -0.14059899       0.47768796      -2.56744482       0.00000000
Si      -0.28960362       3.21360975       0.14916748       0.00000000
Si      -1.20638853      -2.07151785       2.93872677       0.00000000
Si       1.89657954      -3.22836849      -0.75338362       0.00000000
Si      -0.58497390      -3.74018400      -0.65359406       0.00000000
Si       2.20310847       1.92182904       2.68091410       0.00000000
Si       2.15098047       3.29993046      -0.54188213       0.00000000
