10
Lattice="16.28999089631971 0.0 0.0 0.0 16.28999089631971 0.0 0.0 0.0 34.45770212530097" Properties=species:S:1:pos:R:3:initial_magmoms:R:1 pbc="T T T"
Si       1.34838846       1.36370106       1.39344613       0.00000000
Si      -1.36954917      -1.35356868       1.38996590       0.00000000
Si      -1.36205577       1.39426110      -1.41621579       0.00000000
Si       1.41908706      -1.45529973      -1.55950478       0.00000000
Si       2.68286526       2.70884105       0.03116356       0.00000000
Si       2.69570178      -2.70456354       0.03457832       0.00000000
Si      -2.72495862      -2.69330715       0.00163674       0.00000000
Si      -2.73352716       2.71149108       0.02616030       0.00000000
Si       2.70317889       0.00594585       2.75249312       0.00000000
Si      -0.01083285      -2.71011843       2.75128710       0.00000000
