10
Lattice="16.28999089631971 0.0 0.0 0.0 16.28999089631971 0.0 0.0 0.0 34.45770212530097" Properties=species:S:1:pos:R:3:initial_magmoms:R:1 pbc="T T T"
Si       1.35648459      -1.35687555       1.35691061       0.00000000
Si      -1.35666378      -1.35747828      -1.35811663       0.00000000
Si      -1.35793440       1.35764118       1.35691061       0.00000000
Si       1.35734796       1.35858600      -1.35691061       0.00000000
Si       2.71303434       0.00058644       2.71471712       0.00000000
Si      -0.00216657       2.71409319       2.71402797       0.00000000
Si       0.00014661      -2.71559187      -2.71271857       0.00000000
Si       2.71220355      -0.00030951      -2.71702579       0.00000000
Si      -2.71549413       0.00021177       2.71392459       0.00000000
Si       2.71469592      -2.71479366      -0.00027566       0.00000000
