10
Lattice="16.28999089631971 0.0 0.0 0.0 16.28999089631971 0.0 0.0 0.0 34.45770212530097" Properties=species:S:1:pos:R:3:initial_magmoms:R:1 pbc="T T T"
Si       1.36363590       1.32307610       1.35239665       0.00000000
Si       1.35247725      -1.35923760      -1.35897807       0.00000000
Si      -1.36174626       1.35692998      -1.35994289       0.00000000
Si      -1.37150397      -1.36231641       1.38072090       0.00000000
Si       0.00519651       2.58492068       2.70500004       0.00000000
Si       2.71096551      -2.71502172       0.00044795       0.00000000
Si       2.71199178      -0.00060634      -2.71606097       0.00000000
Si       2.71611315       2.71426328       0.00068915       0.00000000
Si      -0.00355122       2.71457279      -2.71588868       0.00000000
Si      -0.00329058      -2.71568961      -2.71609543       0.00000000
