10
Lattice="16.28999089631971 0.0 0.0 0.0 16.28999089631971 0.0 0.0 0.0 34.45770212530097" Properties=species:S:1:pos:R:3:initial_magmoms:R:1 pbc="T T T"
Si       1.42495146      -1.23600375      -1.32934443       0.00000000
Si       1.63571148       1.04798457       1.26539090       0.00000000
Si      -0.89358795      -1.79217693       1.19454583       0.00000000
Si      -1.31869179       1.49582925      -1.29764333       0.00000000
Si      -1.50899157      -0.73060650       3.11046405       0.00000000
Si       2.64355749      -2.56292199       0.27728128       0.00000000
Si       0.05131350      -2.57082264      -2.67905338       0.00000000
Si      -2.66559786       0.14385699      -2.67936350       0.00000000
Si       3.47550408      -0.64979181       1.34960557       0.00000000
Si      -2.75359644      -2.62128906       0.04917117       0.00000000
