10
Lattice="16.28999089631971 0.0 0.0 0.0 16.28999089631971 0.0 0.0 0.0 34.45770212530097" Properties=species:S:1:pos:R:3:initial_magmoms:R:1 pbc="T T T"
Si      -1.07929395      -1.73853396       1.13862095       0.00000000
Si       1.40046759      -1.26499995      -1.45197946       0.00000000
Si       0.83606796       1.79573534       1.32207385       0.00000000
Si      -1.29855735       1.39470323      -1.45273753       0.00000000
Si       0.42948585       0.48506311       3.29012661       0.00000000
Si      -1.76002047      -0.28044864       3.04010138       0.00000000
Si       0.76049865      -3.43631034       1.22283562       0.00000000
Si      -2.65699674       2.65654781      -0.10013414       0.00000000
Si       2.65302198      -2.66944230      -0.09499994       0.00000000
Si      -0.96860340       3.42691820       1.29750550       0.00000000
