10
Lattice="16.28999089631971 0.0 0.0 0.0 16.28999089631971 0.0 0.0 0.0 34.45770212530097" Properties=species:S:1:pos:R:3:initial_magmoms:R:1 pbc="T T T"
Si       1.09170693       0.35192916       2.02714775       0.00000000
Si       0.47514672      -2.16226944      -0.81647571       0.00000000
Si      -2.36201742       0.26595054       0.26877023       0.00000000
Si       0.80042544       1.14893370      -2.01112491       0.00000000
Si      -1.29145491       2.17563768      -2.15598517       0.00000000
Si      -1.66355109      -2.08774269      -2.06753220       0.00000000
Si      -2.70907587       0.10968057      -2.10409184       0.00000000
Si       0.76175298       2.67520800       2.55803786       0.00000000
Si      -2.77034256       2.48541973       1.00723365       0.00000000
Si       2.91573081      -2.07594873      -1.50752531       0.00000000
