10
Lattice="16.28999089631971 0.0 0.0 0.0 16.28999089631971 0.0 0.0 0.0 34.45770212530097" Properties=species:S:1:pos:R:3:initial_magmoms:R:1 pbc="T T T"
Si       0.18280638       2.09339110      -1.04072656       0.00000000
Si      -1.45578843      -1.52034570      -1.04210487       0.00000000
Si       1.93955256      -1.07487936       0.79979817       0.00000000
Si      -1.99936944       2.16825180      -2.05843536       0.00000000
Si      -0.24713559      -2.35149408      -2.91505431       0.00000000
Si       2.85477363      -2.28511233      -1.17611095       0.00000000
Si       0.31438071       3.88424366       0.74697448       0.00000000
Si       1.79494623      -1.61406207       3.20925362       0.00000000
Si      -1.27764099      -3.78724581       0.47344909       0.00000000
Si       3.89979342       0.12082293       1.43268314       0.00000000
