10
Lattice="16.28999089631971 0.0 0.0 0.0 16.28999089631971 0.0 0.0 0.0 34.45770212530097" Properties=species:S:1:pos:R:3:initial_magmoms:R:1 pbc="T T T"
Si       1.45578843       1.52034570       1.04210487       0.00000000
Si       1.20865284      -0.83114838      -1.87294945       0.00000000
Si      -2.22694074       0.52644393      -0.73663717       0.00000000
Si       0.17814744      -2.26690011       1.51555396       0.00000000
Si      -1.80605601       0.90298728      -3.06684058       0.00000000
Si      -0.48936789      -1.02350070      -3.51251674       0.00000000
Si      -2.56510485       2.74468581      -0.12735574       0.00000000
Si       2.78549226      -2.37728115      -0.99624164       0.00000000
Si      -0.54358101       3.68859750      -1.01633049       0.00000000
Si       3.39534099       0.44546634       1.84190304       0.00000000
