10
Lattice="16.28999089631971 0.0 0.0 0.0 16.28999089631971 0.0 0.0 0.0 34.45770212530097" Properties=species:S:1:pos:R:3:initial_magmoms:R:1 pbc="T T T"
Si      -1.48090761       1.64193426       0.99372623       0.00000000
Si       1.70209323       0.09892917       1.87432775       0.00000000
Si      -1.86124653      -1.65294630       0.77522982       0.00000000
Si       0.82829763       0.91745280      -2.58253730       0.00000000
Si       1.75687650      -2.23265038       2.13313970       0.00000000
Si      -0.54633402      -2.71581993       2.39653452       0.00000000
Si       0.06542064       3.13274619       1.96216049       0.00000000
Si      -2.61584820       2.66299146      -0.90668602       0.00000000
Si      -1.88066421      -1.79763408      -2.91681166       0.00000000
Si       3.53357793       1.61075520      -0.59122558       0.00000000
