10
Lattice="16.28999089631971 0.0 0.0 0.0 16.28999089631971 0.0 0.0 0.0 34.45770212530097" Properties=species:S:1:pos:R:3:initial_magmoms:R:1 pbc="T T T"
Si       0.32161347      -0.80615626      -2.21201342       0.00000000
Si       0.51375402       2.33547124      -0.07356724       0.00000000
Si       1.44269127      -0.64705183       1.81867853       0.00000000
Si      -2.34909945      -0.26014967       0.67895494       0.00000000
Si      -1.30754943       0.47314957      -3.33364671       0.00000000
Si      -2.05816005      -0.20021062       3.00471330       0.00000000
Si       0.52885485       2.79333427       2.32589619       0.00000000
Si      -0.11776041      -1.64421553       3.30690752       0.00000000
Si       3.24964323      -1.73051995       0.71262014       0.00000000
Si       0.23302845      -3.16534315      -2.23296372       0.00000000
