10
Lattice="16.28999089631971 0.0 0.0 0.0 16.28999089631971 0.0 0.0 0.0 34.45770212530097" Properties=species:S:1:pos:R:3:initial_magmoms:R:1 pbc="T T T"
Si      -1.53473207      -0.48319398      -1.69769747       0.00000000
Si      -1.36738490      -0.23010602       1.95264503       0.00000000
Si       1.91776143      -1.50794316       0.03707651       0.00000000
Si       0.21564539       2.31954613      -1.04865183       0.00000000
Si       0.47284168       0.66325061       3.14654615       0.00000000
Si       2.34845274       1.54757932       1.79979570       0.00000000
Si       2.01229230      -1.28004606      -2.54873428       0.00000000
Si      -0.09975670      -0.64173820      -3.54049641       0.00000000
Si      -3.13657664       1.28667868      -1.75734379       0.00000000
Si      -3.27667064       1.18403539       1.72929521       0.00000000
