10
Lattice="16.28999089631971 0.0 0.0 0.0 16.28999089631971 0.0 0.0 0.0 34.45770212530097" Properties=species:S:1:pos:R:3:initial_magmoms:R:1 pbc="T T T"
Si      -1.84221981       1.35381303       0.45019013       0.00000000
Si       0.79547328      -1.56118473       1.55717889       0.00000000
Si      -1.54632825      -1.49081193      -0.96843426       0.00000000
Si       1.46378682       1.61634267      -0.99982524       0.00000000
Si      -2.37578247       1.69446951      -1.83184138       0.00000000
Si       1.63667259      -3.03381702      -0.08783273       0.00000000
Si      -2.79756315      -1.99492227       1.04403450       0.00000000
Si      -0.06542064      -3.13274619      -1.96216049       0.00000000
Si      -1.04208759       3.05932716       1.80486099       0.00000000
Si      -1.04692572      -2.60073108       2.52309773       0.00000000
