10
Lattice="16.28999089631971 0.0 0.0 0.0 16.28999089631971 0.0 0.0 0.0 34.45770212530097" Properties=species:S:1:pos:R:3:initial_magmoms:R:1 pbc="T T T"
Si      -0.18969705       2.33175779       0.08604093       0.00000000
Si      -1.89980496      -1.09674054       0.86509555       0.00000000
Si       1.82107539      -1.01636568       1.14740766       0.00000000
Si      -0.76699836      -0.05167188      -2.42992405       0.00000000
Si      -0.30424833      -2.39049234      -1.16691073       0.00000000
Si       1.52546076      -0.11878668      -3.04296138       0.00000000
Si       0.88124013      -0.45038592       3.30652849       0.00000000
Si       2.11351347       2.81492733      -0.17735389       0.00000000
Si      -1.40338350      -1.08636381       3.18978573       0.00000000
Si       2.26826847      -3.01602834      -0.08428359       0.00000000
