10
Lattice="16.28999089631971 0.0 0.0 0.0 16.28999089631971 0.0 0.0 0.0 34.45770212530097" Properties=species:S:1:pos:R:3:initial_magmoms:R:1 pbc="T T T"
Si      -1.64843397      -1.03873185       1.38402884       0.00000000
Si       1.52459739      -0.75408039      -1.75727488       0.00000000
Si      -1.70056197       0.33936957      -1.83876739       0.00000000
Si       0.30424833       2.39049234       1.16691073       0.00000000
Si      -0.46275003       2.33882046      -1.26301332       0.00000000
Si       2.57251680      -0.62553600       1.08262715       0.00000000
Si      -1.59555663       1.29375180       2.03200629       0.00000000
Si       2.12532372       1.37412666       2.31431840       0.00000000
Si       1.82970909       2.27170566      -1.87605064       0.00000000
Si      -0.31578165      -2.65984749       2.62343862       0.00000000
