10
Lattice="16.28999089631971 0.0 0.0 0.0 16.28999089631971 0.0 0.0 0.0 34.45770212530097" Properties=species:S:1:pos:R:3:initial_magmoms:R:1 pbc="T T T"
Si      -0.61312302      -1.34529336       1.90375465       0.00000000
Si       0.51316758       2.20320621       0.88876801       0.00000000
Si      -2.16608130      -0.18671598      -1.14365177       0.00000000
Si       1.91161521      -0.91865826      -1.30222621       0.00000000
Si      -2.13819282      -2.95780788       1.04151909       0.00000000
Si       2.07361926       3.20036991      -0.59946098       0.00000000
Si       1.87206309       1.98449667       2.85599378       0.00000000
Si      -1.42723206       3.64721112       0.58657379       0.00000000
Si      -3.71503224      -1.41167511       0.16481128       0.00000000
Si       1.13862213      -2.66882328       2.76881574       0.00000000
