10
Lattice="16.28999089631971 0.0 0.0 0.0 16.28999089631971 0.0 0.0 0.0 34.45770212530097" Properties=species:S:1:pos:R:3:initial_magmoms:R:1 pbc="T T T"
Si      -1.35351981       1.35428544       1.35949494       0.00000000
Si       1.36151820      -1.35824391       1.35870241       0.00000000
Si      -1.35422028      -1.34910522      -1.38240243       0.00000000
Si       1.36000323       1.35490446      -1.38682680       0.00000000
Si       2.67828777      -0.17378172      -2.73315889       0.00000000
Si      -2.71192662       2.71225242      -0.00213638       0.00000000
Si      -2.71034649      -2.71757111      -0.00110265       0.00000000
Si      -2.71212210      -0.00237834       2.71699133       0.00000000
Si       2.71713942       2.71254564      -0.00144722       0.00000000
Si       0.00289962       2.71285515       2.71709470       0.00000000
