10
Lattice="16.28999089631971 0.0 0.0 0.0 16.28999089631971 0.0 0.0 0.0 34.45770212530097" Properties=species:S:1:pos:R:3:initial_magmoms:R:1 pbc="T T T"
Si      -1.35988920       1.35413883      -1.36094216       0.00000000
Si       1.35474156      -1.36018894      -1.36014964       0.00000000
Si       1.34522820       1.33770222       1.39429724       0.00000000
Si      -1.34234487      -1.36483647       1.38485582       0.00000000
Si      -2.71384884       2.71021617      -0.00513420       0.00000000
Si       2.71423070       2.71194291       0.00330794       0.00000000
Si       2.71341802      -2.71348136      -0.00072361       0.00000000
Si      -0.00096111       2.71257822      -2.71768049       0.00000000
Si       2.71417265      -0.00242721      -2.71809398       0.00000000
Si      -2.71577106      -0.00232947      -2.71785277       0.00000000
