10
Lattice="16.28999089631971 0.0 0.0 0.0 16.28999089631971 0.0 0.0 0.0 34.45770212530097" Properties=species:S:1:pos:R:3:initial_magmoms:R:1 pbc="T T T"
Si       1.60549353       0.79224786       1.47668565       0.00000000
Si       1.13033052      -1.83247839      -1.04434462       0.00000000
Si      -0.24247665       1.91155005      -1.42413762       0.00000000
Si      -1.98975834      -0.35119611       1.35160412       0.00000000
Si      -3.52079028       1.03399146       0.23896430       0.00000000
Si       3.64498428       0.02995731       0.56245339       0.00000000
Si      -1.93419315       1.21751460      -2.90547507       0.00000000
Si      -0.55439757       3.69199818       0.12404780       0.00000000
Si       0.89808399       3.09640320       2.00816154       0.00000000
Si       1.66159629      -0.46757187       3.44845984       0.00000000
