10
Lattice="16.28999089631971 0.0 0.0 0.0 16.28999089631971 0.0 0.0 0.0 34.45770212530097" Properties=species:S:1:pos:R:3:initial_magmoms:R:1 pbc="T T T"
Si       0.85033378      -2.12785749      -0.63502135       0.00000000
Si       1.96619878       1.10123495       0.81602776       0.00000000
Si      -1.07010639       1.40642810      -1.64029091       0.00000000
Si      -1.45430604      -1.17828081       1.54184520       0.00000000
Si       1.44454737       3.26886380      -0.03349291       0.00000000
Si       0.40149963      -2.16187101       2.83997094       0.00000000
Si      -2.44504755      -0.08086682      -2.74810665       0.00000000
Si       1.44854005       1.50825689       3.03517393       0.00000000
Si       2.01306674      -2.89896093       1.30339777       0.00000000
Si      -0.96671376      -3.51345231      -1.18579357       0.00000000
