10
Lattice="16.28999089631971 0.0 0.0 0.0 16.28999089631971 0.0 0.0 0.0 34.45770212530097" Properties=species:S:1:pos:R:3:initial_magmoms:R:1 pbc="T T T"
Si       1.53226998       0.75306715      -1.54305122       0.00000000
Si      -1.62531846       1.67296345       0.36659570       0.00000000
Si      -0.24799896      -1.99332000      -1.38885292       0.00000000
Si       1.39217598       0.65042386       1.94358777       0.00000000
Si      -2.11168899      -1.19433719       1.94138248       0.00000000
Si      -1.68816528      -2.91717477       0.26770204       0.00000000
Si      -0.42078699      -0.05131513       3.35686574       0.00000000
Si       3.13411455      -1.01680551      -1.48340491       0.00000000
Si      -0.59942313       3.83656867       0.32269656       0.00000000
Si       0.72829332       1.14015013      -3.72715389       0.00000000
