10
Lattice="16.28999089631971 0.0 0.0 0.0 16.28999089631971 0.0 0.0 0.0 34.45770212530097" Properties=species:S:1:pos:R:3:initial_magmoms:R:1 pbc="T T T"
Si       1.35656604       1.35817875       1.35694507       0.00000000
Si       1.35777150      -1.35682668      -1.35735856       0.00000000
Si      -1.35744570       1.35783666      -1.35763422       0.00000000
Si      -1.35892809      -1.35843939       1.35673832       0.00000000
Si      -2.71288773      -0.00236205       2.71254628       0.00000000
Si      -2.71386513      -0.00073305      -2.71523399       0.00000000
Si       0.00117288      -2.71326240      -2.71602651       0.00000000
Si      -2.71450044       2.71497285      -0.00027566       0.00000000
Si      -2.71480995      -2.71490769      -0.00017229       0.00000000
Si       2.71513376      -2.71500543      -0.00041349       0.00000000
