10
Lattice="16.28999089631971 0.0 0.0 0.0 16.28999089631971 0.0 0.0 0.0 34.45770212530097" Properties=species:S:1:pos:R:3:initial_magmoms:R:1 pbc="T T T"
Si       0.41091525      -0.78157791       2.66017055       0.00000000
Si       1.15230573       1.09833696      -2.32875618       0.00000000
Si       1.38333051       2.49305418      -0.42613864       0.00000000
Si       1.64234151      -2.13666156       1.02976900       0.00000000
Si      -1.83148470      -1.51182603       2.46555334       0.00000000
Si      -2.70528030      -0.69330240      -1.99131172       0.00000000
Si      -0.79428411       0.26857323      -3.51940829       0.00000000
Si      -0.79589682       3.54362886      -0.43247886       0.00000000
Si       3.55464320      -1.02410343       0.15185518       0.00000000
Si       2.90369969      -0.58031496      -2.32627523       0.00000000
