10
Lattice="16.28999089631971 0.0 0.0 0.0 16.28999089631971 0.0 0.0 0.0 34.45770212530097" Properties=species:S:1:pos:R:3:initial_magmoms:R:1 pbc="T T T"
Si      -1.41271020       1.27358478       1.33957838       0.00000000
Si       1.32918092       1.36317978      -1.36886744       0.00000000
Si      -1.38699738      -1.35211887      -1.35866795       0.00000000
Si       1.43415368      -1.36475991       1.48457647       0.00000000
Si      -2.17873116      -0.55012959       2.76013240       0.00000000
Si      -0.42733720      -2.22878151       2.76261335       0.00000000
Si       2.67668972       2.70500337       0.00344577       0.00000000
Si       2.68371071       0.00700470      -2.72264240       0.00000000
Si       2.70211841      -2.72222190       0.00458288       0.00000000
Si      -0.02965432      -2.70979263      -2.72222890       0.00000000
