10
Lattice="16.28999089631971 0.0 0.0 0.0 16.28999089631971 0.0 0.0 0.0 34.45770212530097" Properties=species:S:1:pos:R:3:initial_magmoms:R:1 pbc="T T T"
Si       1.47263229      -1.73690496       0.54584476       0.00000000
Si      -2.22361758      -0.72361809       0.19909671       0.00000000
Si       0.93024045       1.86958701       1.30815293       0.00000000
Si       0.62796321       0.04129515      -2.38509456       0.00000000
Si      -1.35764118       2.26126377      -1.41514416       0.00000000
Si       2.89474670       1.76164947      -0.02859991       0.00000000
Si       3.35685654      -0.36676935       0.72533504       0.00000000
Si      -0.70991820       3.35438793       0.55983460       0.00000000
Si      -3.08443005       0.72742995      -1.42903062       0.00000000
Si       2.45086945       1.58026032      -2.32734342       0.00000000
