10
Lattice="16.28999089631971 0.0 0.0 0.0 16.28999089631971 0.0 0.0 0.0 34.45770212530097" Properties=species:S:1:pos:R:3:initial_magmoms:R:1 pbc="T T T"
Si      -0.64596366      -2.15194158       0.66841088       0.00000000
Si      -0.23965848       1.06955253      -2.15023073       0.00000000
Si       2.32816584      -0.71790030      -0.35177888       0.00000000
Si      -1.42299666       0.81148635       1.88986819       0.00000000
Si       1.24269811      -2.46037644       2.27942363       0.00000000
Si       2.18695761      -1.16680383      -2.73304863       0.00000000
Si      -1.16989893      -0.80003448      -3.45838366       0.00000000
Si       0.20072538      -3.67192890      -0.87929213       0.00000000
Si       0.30273336      -2.53693944      -2.91253890       0.00000000
Si       3.71321495       1.26004779       0.30160844       0.00000000
