10
Lattice="16.28999089631971 0.0 0.0 0.0 16.28999089631971 0.0 0.0 0.0 34.45770212530097" Properties=species:S:1:pos:R:3:initial_magmoms:R:1 pbc="T T T"
Si      -1.35659862      -1.35812988       1.35756531       0.00000000
Si       1.35863487       1.35672894       1.35759976       0.00000000
Si      -1.35917244       1.35822762      -1.35656603       0.00000000
Si       1.35764118      -1.35843939      -1.36097662       0.00000000
Si       0.01469358       2.69806383      -2.71354900       0.00000000
Si       2.70321147       0.01930365      -2.72295596       0.00000000
Si      -2.71344159       2.71446786       0.00037903       0.00000000
Si      -2.71365336      -0.00099369       2.71492387       0.00000000
Si       0.00091224       2.71425609       2.71464821       0.00000000
Si      -2.71301805      -2.71669959      -0.00003446       0.00000000
