10
Lattice="16.28999089631971 0.0 0.0 0.0 16.28999089631971 0.0 0.0 0.0 34.45770212530097" Properties=species:S:1:pos:R:3:initial_magmoms:R:1 pbc="T T T"
Si      -1.89275139      -0.90528417      -1.05936819       0.00000000
Si       1.02107349      -0.15063363       2.13158910       0.00000000
Si       0.99823491       1.93471443      -1.07132502       0.00000000
Si      -0.30587733      -2.04028992      -2.50356020       0.00000000
Si       1.51237989       2.19581055       2.23017264       0.00000000
Si       2.39093217       0.66767823      -2.52416592       0.00000000
Si       1.02268620      -3.42568926      -0.95534033       0.00000000
Si      -0.85289553       2.79282276       2.54160153       0.00000000
Si       2.96927604      -2.59592553       0.23531178       0.00000000
Si      -2.79342549      -2.83323825       0.21959906       0.00000000
