10
Lattice="16.28999089631971 0.0 0.0 0.0 16.28999089631971 0.0 0.0 0.0 34.45770212530097" Properties=species:S:1:pos:R:3:initial_magmoms:R:1 pbc="T T T"
Si       1.26796473      -1.35746199      -1.47999359       0.00000000
Si       1.46971638       1.16476758       1.50993735       0.00000000
Si      -1.86149088      -0.86402160       1.27803689       0.00000000
Si      -1.43415368       1.36475991      -1.48457647       0.00000000
Si       2.61356760       2.70793557       0.01736669       0.00000000
Si       2.60543889       0.01598049      -2.84555309       0.00000000
Si       2.61749349      -2.83128345      -0.14348195       0.00000000
Si      -2.84686388       2.63834469      -0.14499809       0.00000000
Si      -3.61288484       0.81463032       1.27555593       0.00000000
Si      -2.76967255      -2.77430103       0.02012331       0.00000000
