10
Lattice="16.28999089631971 0.0 0.0 0.0 16.28999089631971 0.0 0.0 0.0 34.45770212530097" Properties=species:S:1:pos:R:3:initial_magmoms:R:1 pbc="T T T"
Si      -0.63216603       0.24190650      -2.26631879       0.00000000
Si       0.62824651      -2.28359736       0.26680614       0.00000000
Si       2.17188284       0.92750373      -0.32469511       0.00000000
Si      -1.34403903       1.04633928       1.84252328       0.00000000
Si       1.07212376      -2.10220821       2.56554965       0.00000000
Si      -0.85902057       2.61866637      -2.38895382       0.00000000
Si      -2.69078220      -0.90277551      -2.41700241       0.00000000
Si      -3.18026412      -1.60259391       1.17900539       0.00000000
Si       1.26784811      -0.41177862      -3.57681485       0.00000000
Si       2.12075993       3.23315775       0.10023751       0.00000000
