10
Lattice="16.28999089631971 0.0 0.0 0.0 16.28999089631971 0.0 0.0 0.0 34.45770212530097" Properties=species:S:1:pos:R:3:initial_magmoms:R:1 pbc="T T T"
Si       1.34663633       1.34325711       1.36698260       0.00000000
Si       1.38601740      -1.18869759      -1.47827415       0.00000000
Si      -1.36840887      -1.37459907       1.36288213       0.00000000
Si      -1.29391470       1.33548678      -1.48131677       0.00000000
Si      -2.15705664      -0.50391486      -2.80083183       0.00000000
Si      -0.35319978      -2.19564765      -2.83046547       0.00000000
Si       2.69958599       2.69062359      -0.00305985       0.00000000
Si      -2.72593602       2.67603781      -0.00698803       0.00000000
Si      -0.00862571       2.69828287       2.72306623       0.00000000
Si       2.70815453      -2.71417464      -0.02758341       0.00000000
