10
Lattice="16.28999089631971 0.0 0.0 0.0 16.28999089631971 0.0 0.0 0.0 34.45770212530097" Properties=species:S:1:pos:R:3:initial_magmoms:R:1 pbc="T T T"
Si      -1.21826394      -1.07100234      -1.64401234       0.00000000
Si       2.03990615      -1.16110233       0.35177888       0.00000000
Si      -1.73664432      -0.29437659       1.62027097       0.00000000
Si       0.59862885       2.34476535      -0.28265669       0.00000000
Si      -2.59682148       1.01169045      -1.83263391       0.00000000
Si       2.28725351      -0.63452808       2.64910962       0.00000000
Si       3.36902354       0.03823263      -1.19165138       0.00000000
Si       2.96069840       2.25770182      -0.45318795       0.00000000
Si      -1.20083364      -3.42632457      -1.06370986       0.00000000
Si      -2.73129543       1.82930740       1.99989169       0.00000000
