10
Lattice="16.28999089631971 0.0 0.0 0.0 16.28999089631971 0.0 0.0 0.0 34.45770212530097" Properties=species:S:1:pos:R:3:initial_magmoms:R:1 pbc="T T T"
Si       1.45344267       1.48213003      -1.11991040       0.00000000
Si      -1.51612659      -1.38302100      -1.17259626       0.00000000
Si      -0.92807388       1.55069301       1.69301122       0.00000000
Si       1.37855754      -2.08269279       0.18862157       0.00000000
Si       2.59682148      -1.01169045       1.83263391       0.00000000
Si      -3.04158735      -1.26423432       1.87036512       0.00000000
Si       0.86017716      -1.30606704       3.45290489       0.00000000
Si       3.19545033       1.33307490       1.54997722       0.00000000
Si      -1.40739084      -1.09988451      -3.47981637       0.00000000
Si      -0.13447395       0.81761695       3.83252560       0.00000000
