10
Lattice="16.28999089631971 0.0 0.0 0.0 16.28999089631971 0.0 0.0 0.0 34.45770212530097" Properties=species:S:1:pos:R:3:initial_magmoms:R:1 pbc="T T T"
Si       1.35687555       1.35692846       1.35618700       0.00000000
Si       1.35726651      -1.35733319      -1.35684169       0.00000000
Si      -1.35730886       1.35709950      -1.35711736       0.00000000
Si      -1.35638033      -1.35824543       1.35884024       0.00000000
Si      -2.71430416      -0.00154179      -2.71399351       0.00000000
Si      -2.71488429       2.71447353      -0.00003446       0.00000000
Si       0.00021177      -2.71429019       2.71513061       0.00000000
Si      -0.00027693      -2.71363859      -2.71585423       0.00000000
Si       2.71507059       2.71457127       0.00024120       0.00000000
Si      -0.00143352       2.71507626      -2.71478604       0.00000000
