10
Lattice="16.28999089631971 0.0 0.0 0.0 16.28999089631971 0.0 0.0 0.0 34.45770212530097" Properties=species:S:1:pos:R:3:initial_magmoms:R:1 pbc="T T T"
Si       1.35540945       1.33973847       1.38832916       0.00000000
Si      -1.35930765      -1.37560905       1.38736434       0.00000000
Si       1.49234319      -1.24618500      -1.44639387       0.00000000
Si      -1.32213713       1.52547705      -1.45069074       0.00000000
Si       2.72495862       2.69330715      -0.00163674       0.00000000
Si      -2.70815453       2.71417464       0.02758341       0.00000000
Si       2.70860346      -2.71790505       0.02770056       0.00000000
Si      -2.73012974      -2.71124244       0.02686669       0.00000000
Si      -0.00275301       2.70036072       2.74878892       0.00000000
Si       2.71412577      -0.01681128       2.74965036       0.00000000
