10
Lattice="16.28999089631971 0.0 0.0 0.0 16.28999089631971 0.0 0.0 0.0 34.45770212530097" Properties=species:S:1:pos:R:3:initial_magmoms:R:1 pbc="T T T"
Si      -0.81888201       0.37377405      -2.14065148       0.00000000
Si      -0.71109597      -1.35215145       1.81313084       0.00000000
Si       0.20194713       2.30197248       0.56348712       0.00000000
Si      -2.25516221      -1.77723900      -0.09365609       0.00000000
Si       0.40889529       2.15915805       2.89365607       0.00000000
Si      -1.55882659       0.63992007       3.24161014       0.00000000
Si       0.93258621       1.40776551      -3.39277616       0.00000000
Si       3.16628730      -1.73019348       1.37520766       0.00000000
Si      -2.49047126       2.24231850      -1.96457253       0.00000000
Si       2.17719108       3.29844807      -0.33148328       0.00000000
