10
Lattice="16.28999089631971 0.0 0.0 0.0 16.28999089631971 0.0 0.0 0.0 34.45770212530097" Properties=species:S:1:pos:R:3:initial_magmoms:R:1 pbc="T T T"
Si       1.10056869      -1.59456294      -1.36263059       0.00000000
Si       1.40936193       0.30006180       1.89417540       0.00000000
Si       0.23649822       2.08313262      -1.13066121       0.00000000
Si      -2.18432610      -0.67375440       0.82688194       0.00000000
Si       0.59494338       3.39545502       0.82526243       0.00000000
Si      -3.31492703       1.44682893       0.49905118       0.00000000
Si       3.17443230      -1.24069527       1.53943316       0.00000000
Si       0.06437808      -0.26130789       3.75895837       0.00000000
Si      -1.73438001       3.12005628       1.45804402       0.00000000
Si       2.24823177       2.03369247      -2.44959941       0.00000000
