10
Lattice="16.28999089631971 0.0 0.0 0.0 16.28999089631971 0.0 0.0 0.0 34.45770212530097" Properties=species:S:1:pos:R:3:initial_magmoms:R:1 pbc="T T T"
Si       1.35587534       1.35797675      -1.35766868       0.00000000
Si       1.35730886      -1.35709950       1.35711736       0.00000000
Si      -1.35757542       1.35737402       1.35708290       0.00000000
Si      -1.35699529      -1.35864130      -1.35687615       0.00000000
Si      -0.00086337       2.71498262      -2.71082340       0.00000000
Si      -0.00173326      -2.71366706      -2.71295978       0.00000000
Si       2.71418441      -0.00017105       2.71330435       0.00000000
Si      -0.00017430       2.71407038       2.71492387       0.00000000
Si       2.71457537      -2.71443269       0.00027566       0.00000000
Si      -2.71483994      -2.71505171      -0.00003446       0.00000000
