10
Lattice="16.28999089631971 0.0 0.0 0.0 16.28999089631971 0.0 0.0 0.0 34.45770212530097" Properties=species:S:1:pos:R:3:initial_magmoms:R:1 pbc="T T T"
Si       0.05112291      -2.30565402      -0.42493262       0.00000000
Si      -1.61156711       0.73708992       1.53657317       0.00000000
Si      -1.16273296       0.77110344      -1.93841912       0.00000000
Si       2.21230580      -0.07376112       0.91488696       0.00000000
Si       0.72763520      -1.97170902      -2.71805952       0.00000000
Si       0.56043464       0.35425863      -3.40228649       0.00000000
Si       1.79142107      -0.45030447       3.24509037       0.00000000
Si      -2.01306674       2.89896093      -1.30339777       0.00000000
Si      -0.65879203       2.40624528       2.86260966       0.00000000
Si      -1.96154147      -0.96350463       3.12180064       0.00000000
