10
Lattice="10.86 0.0 0.0 0.0 10.86 0.0 0.0 0.0 10.86" Properties=species:S:1:pos:R:3:initial_magmoms:R:1 pbc="T T T"
Si       1.19339454      -1.40351382      -1.21387650       0.00000000
Si      -1.52160546       1.31148618      -1.21387650       0.00000000
Si       1.25434086       1.32723318       1.74350784       0.00000000
Si      -1.52160546      -1.40351382       1.50112350       0.00000000
Si       2.55089454      -0.04601382      -2.57137650       0.00000000
Si       2.51854260       2.69193336       0.01015410       0.00000000
Si      -0.16410546       2.66898618      -2.57137650       0.00000000
Si      -0.16410546      -2.76101382      -2.57137650       0.00000000
Si      -0.05036868       2.64636480       2.79867630       0.00000000
Si       2.44421676      -2.98189536       0.04795776       0.00000000
