10
Lattice="10.86 0.0 0.0 0.0 10.86 0.0 0.0 0.0 10.86" Properties=species:S:1:pos:R:3:initial_magmoms:R:1 pbc="T T T"
Si      -1.32514806       1.33455282      -1.22403060       0.00000000
Si       1.38985194      -1.38044718      -1.22403060       0.00000000
Si       1.38985194       1.33455282       1.49096940       0.00000000
Si      -1.26420174      -1.36470018       1.73335374       0.00000000
Si      -2.51854260      -2.69193336      -0.01015410       0.00000000
Si      -2.68264806      -0.02294718      -2.58153060       0.00000000
Si       0.03235194       2.69205282      -2.58153060       0.00000000
Si       0.03235194      -2.73794718      -2.58153060       0.00000000
Si       2.74735194      -0.02294718      -2.58153060       0.00000000
Si      -2.56891128      -0.04556856       2.78852220       0.00000000
