10
Lattice="10.86 0.0 0.0 0.0 10.86 0.0 0.0 0.0 10.86" Properties=species:S:1:pos:R:3:initial_magmoms:R:1 pbc="T T T"
Si       1.23100272      -1.11001146      -1.50218778       0.00000000
Si       1.23100272       1.60498854       1.21281222       0.00000000
Si      -1.48399728       1.60498854      -1.50218778       0.00000000
Si      -0.09250548      -2.59600698       2.45321970       0.00000000
Si       2.58850272      -2.46751146      -0.14468778       0.00000000
Si       2.58850272       0.24748854       2.57031222       0.00000000
Si      -0.12649728      -2.46751146      -2.85968778       0.00000000
Si       2.58850272       0.24748854      -2.85968778       0.00000000
Si       2.58850272       2.96248854      -0.14468778       0.00000000
Si      -0.11020728       3.10256082       2.47171428       0.00000000
