10
Lattice="10.86 0.0 0.0 0.0 10.86 0.0 0.0 0.0 10.86" Properties=species:S:1:pos:R:3:initial_magmoms:R:1 pbc="T T T"
Si      -2.00241024      -1.27831974       0.58370328       0.00000000
Si       0.27963414       1.32961152      -2.13728058       0.00000000
Si       0.71258976      -1.27831974      -2.13129672       0.00000000
Si       1.77428508       0.01433520       1.96448712       0.00000000
Si      -2.00241024       1.43668026      -2.13129672       0.00000000
Si      -0.64491024      -2.63581974       1.94120328       0.00000000
Si       2.07008976      -2.63581974      -0.77379672       0.00000000
Si      -0.65655216       2.90375766       1.81435848       0.00000000
Si       0.71258976      -1.27831974       3.29870328       0.00000000
Si       3.42758976      -1.27831974       0.58370328       0.00000000
