10
Lattice="16.28999089631971 0.0 0.0 0.0 16.28999089631971 0.0 0.0 0.0 34.71893929493243" Properties=species:S:1:pos:R:3:initial_magmoms:R:1 pbc="T T T"
Si       1.11276990      -0.26233416      -2.06445872       0.00000000
Si       0.00850338       2.37421441      -0.05312001       0.00000000
Si      -2.26569954      -0.77027265      -0.33416998       0.00000000
Si       0.94532499      -1.09921662       1.94044260       0.00000000
Si      -1.53178128      -2.64847707      -1.56738739       0.00000000
Si      -0.52114968      -1.38214134      -3.29125313       0.00000000
Si       1.80638181       2.78771489       1.43708714       0.00000000
Si       0.12259854       0.34432173       3.64431022       0.00000000
Si      -3.32857968       0.59794074      -2.03515592       0.00000000
Si       0.03085326      -3.34472796       2.11792592       0.00000000
