10
Lattice="16.28999089631971 0.0 0.0 0.0 16.28999089631971 0.0 0.0 0.0 34.71893929493243" Properties=species:S:1:pos:R:3:initial_magmoms:R:1 pbc="T T T"
Si       1.35962856      -1.35408866      -1.35317142       0.00000000
Si      -1.35803214      -1.35623894       1.35702522       0.00000000
Si       1.35733167       1.35816443       1.35705994       0.00000000
Si      -1.36122498       1.36001823      -1.35549759       0.00000000
Si      -2.70765864       0.01547680      -2.67148500       0.00000000
Si       2.70668124      -0.02484093      -2.70717261       0.00000000
Si       2.71373481      -2.71332626      -0.00020831       0.00000000
Si      -0.00047241      -2.71353803       2.71401572       0.00000000
Si       2.71336014       2.71446006      -0.00086797       0.00000000
Si       2.71450044       0.00079174       2.71384213       0.00000000
