10
Lattice="16.28999089631971 0.0 0.0 0.0 16.28999089631971 0.0 0.0 0.0 34.71893929493243" Properties=species:S:1:pos:R:3:initial_magmoms:R:1 pbc="T T T"
Si       0.36300636      -1.81062535      -1.42010957       0.00000000
Si       1.88015922       1.31123097       0.57866088       0.00000000
Si      -1.58462604       1.73135007      -0.46231765       0.00000000
Si      -1.03650012      -1.19778252       1.81316290       0.00000000
Si       1.32888933       1.48561542       2.81275644       0.00000000
Si      -2.99006208       0.27774450      -1.70858940       0.00000000
Si      -1.74943197      -1.60511397      -2.53906689       0.00000000
Si       0.76137831      -0.78428205       3.30337004       0.00000000
Si      -2.48184666       2.02970142       1.76629230       0.00000000
Si      -3.25042678      -0.23762223       1.95321918       0.00000000
