10
Lattice="16.28999089631971 0.0 0.0 0.0 16.28999089631971 0.0 0.0 0.0 34.71893929493243" Properties=species:S:1:pos:R:3:initial_magmoms:R:1 pbc="T T T"
Si       0.33915780      -2.08046010      -1.11843654       0.00000000
Si      -2.17386792      -0.16495254       1.00129477       0.00000000
Si      -0.19246635       1.52103803      -1.91370900       0.00000000
Si       1.77520275       0.37453968       1.80424013       0.00000000
Si       1.45196028       3.10149382      -1.28335159       0.00000000
Si      -0.38998260      -1.69044492      -3.35784409       0.00000000
Si      -2.53687428       1.64567282       2.42140434       0.00000000
Si      -2.46910788      -2.18865828       2.22322852       0.00000000
Si       2.62260855      -2.83123362      -1.14301756       0.00000000
Si       0.18883368       0.42525045      -4.01736543       0.00000000
