10
Lattice="16.28999089631971 0.0 0.0 0.0 16.28999089631971 0.0 0.0 0.0 34.71893929493243" Properties=species:S:1:pos:R:3:initial_magmoms:R:1 pbc="T T T"
Si      -0.55126989       0.17438445       2.23409555       0.00000000
Si      -0.22527441       2.10494493      -1.00632902       0.00000000
Si       2.30656626      -0.45844947      -0.12245377       0.00000000
Si      -1.88015922      -1.31123097      -0.57866088       0.00000000
Si      -1.11878091      -2.09551302       2.72470916       0.00000000
Si      -3.46478526       0.42011910      -1.04097854       0.00000000
Si       2.95924140       0.71892657      -2.05529292       0.00000000
Si       1.27588167       1.16893782       3.31708403       0.00000000
Si       2.43191781      -2.58236410      -1.19582509       0.00000000
Si       1.92225258       2.77369830      -1.72306720       0.00000000
