10
Lattice="16.28999089631971 0.0 0.0 0.0 16.28999089631971 0.0 0.0 0.0 34.71893929493243" Properties=species:S:1:pos:R:3:initial_magmoms:R:1 pbc="T T T"
Si      -0.21686877       0.40537665      -2.25825995       0.00000000
Si      -1.61619606      -1.67704084       0.57404326       0.00000000
Si       2.02413024      -1.33796286       0.02197710       0.00000000
Si       0.65461365       2.37443040       1.00973148       0.00000000
Si      -0.79377912       1.02376134       2.96577473       0.00000000
Si      -2.65880493       0.04530249       1.87940602       0.00000000
Si      -0.00374670      -2.93266264       1.76284440       0.00000000
Si       2.05602606       1.20782205      -2.49657088       0.00000000
Si       2.50374042       2.54767455      -0.53647735       0.00000000
Si       3.25275462      -0.70470540      -1.85885305       0.00000000
