10
Lattice="16.28999089631971 0.0 0.0 0.0 16.28999089631971 0.0 0.0 0.0 34.71893929493243" Properties=species:S:1:pos:R:3:initial_magmoms:R:1 pbc="T T T"
Si       1.35625653       1.35721764      -1.35886532       0.00000000
Si      -1.35760860       1.35747828       1.35761544       0.00000000
Si       1.35752715      -1.35772263       1.35799735       0.00000000
Si      -1.35793440      -1.35863487      -1.35744185       0.00000000
Si      -0.00324171      -2.71340249      -2.71193258       0.00000000
Si      -0.00087966       2.71402803       2.71408516       0.00000000
Si      -2.71491584      -2.71493864       0.00048607       0.00000000
Si       2.71494027       2.71520091       0.00010416       0.00000000
Si       0.00035838      -2.71545666       2.71484898       0.00000000
Si      -2.71465845      -0.00009774       2.71564751       0.00000000
