10
Lattice="16.28999089631971 0.0 0.0 0.0 16.28999089631971 0.0 0.0 0.0 34.71893929493243" Properties=species:S:1:pos:R:3:initial_magmoms:R:1 pbc="T T T"
Si       1.71817146       0.21491397      -1.57710870       0.00000000
Si       1.10591181       0.71433279       1.99141003       0.00000000
Si      -0.26293689      -2.30329197       0.60973435       0.00000000
Si      -1.82617416       1.43586576      -0.60532504       0.00000000
Si      -3.40303639       0.72158184       0.99869085       0.00000000
Si      -0.38270097      -0.02938716       3.61660449       0.00000000
Si       3.51396477       0.94742640      -0.30830435       0.00000000
Si       3.29271399      -0.24146667       1.67390516       0.00000000
Si      -2.08411002      -3.03758001      -0.71239831       0.00000000
Si      -0.82955196      -2.21934960       2.91864926       0.00000000
