10
Lattice="16.28999089631971 0.0 0.0 0.0 16.28999089631971 0.0 0.0 0.0 34.71893929493243" Properties=species:S:1:pos:R:3:initial_magmoms:R:1 pbc="T T T"
Si       2.02592214       0.67499244       0.90838684       0.00000000
Si      -1.29554370       1.71522297       0.92296880       0.00000000
Si      -0.81210537      -2.05630299       0.79839717       0.00000000
Si       0.22120191       0.15578127      -2.38418561       0.00000000
Si      -2.24748243      -2.59722873      -1.05524803       0.00000000
Si       2.17833138       2.89999467       0.15415218       0.00000000
Si      -0.10511937       3.65076819       0.17873320       0.00000000
Si      -1.60160022      -1.13365368      -3.15772401       0.00000000
Si       0.92651004      -3.67217325       0.56581487       0.00000000
Si       2.02298994       0.47996856       3.21820444       0.00000000
