10
Lattice="16.28999089631971 0.0 0.0 0.0 16.28999089631971 0.0 0.0 0.0 34.71893929493243" Properties=species:S:1:pos:R:3:initial_magmoms:R:1 pbc="T T T"
Si      -0.93558357       1.74680928       1.33973518       0.00000000
Si       0.89585226       1.27842291      -1.91943763       0.00000000
Si      -1.52371773      -1.94678532      -0.24605326       0.00000000
Si       1.79883954      -0.89902881       1.53049506       0.00000000
Si       2.58069438      -1.51086492      -0.56998114       0.00000000
Si      -2.00472885       0.08806374       2.71829452       0.00000000
Si       3.17785320       0.39371301      -1.96925934       0.00000000
Si      -1.99117557      -1.88900469      -2.63766873       0.00000000
Si      -3.46949307      -1.31976693       1.07496840       0.00000000
Si       0.64956375      -2.68975593       2.71089591       0.00000000
