10
Lattice="16.28999089631971 0.0 0.0 0.0 16.28999089631971 0.0 0.0 0.0 34.71893929493243" Properties=species:S:1:pos:R:3:initial_magmoms:R:1 pbc="T T T"
Si       0.87547347       1.85831433       1.22634306       0.00000000
Si       1.62847872       0.02847492      -1.75570302       0.00000000
Si      -0.05530455      -2.41491824       0.45152006       0.00000000
Si      -2.31134412       0.96620877       0.03770479       0.00000000
Si      -0.16939971      -0.38502555      -3.24591017       0.00000000
Si      -0.36018819       3.66068880       0.33826681       0.00000000
Si       2.19598974       2.29837239      -2.24631663       0.00000000
Si       1.09234224       1.45293768       3.48460301       0.00000000
Si      -2.38332637       0.57513474      -3.10585389       0.00000000
Si      -2.14296579      -3.17802329       1.35237288       0.00000000
