10
Lattice="16.28999089631971 0.0 0.0 0.0 16.28999089631971 0.0 0.0 0.0 34.71893929493243" Properties=species:S:1:pos:R:3:initial_magmoms:R:1 pbc="T T T"
Si       1.34705268       1.32924773      -1.35400120       0.00000000
Si       1.35410625      -1.35923760       1.35296310       0.00000000
Si      -1.35962856       1.35408866       1.35317142       0.00000000
Si      -1.35599589      -1.36417347      -1.36651391       0.00000000
Si      -0.15864831       2.52507285      -2.65553511       0.00000000
Si       2.50980030      -0.11686446      -2.81980092       0.00000000
Si      -2.79080280      -0.03031569      -2.59062801       0.00000000
Si      -0.00229689       2.71225309       2.71023135       0.00000000
Si       2.71235016      -0.00242721       2.71033551       0.00000000
Si      -0.00179190      -2.71756296       2.70964113       0.00000000
