10
Lattice="16.28999089631971 0.0 0.0 0.0 16.28999089631971 0.0 0.0 0.0 34.71893929493243" Properties=species:S:1:pos:R:3:initial_magmoms:R:1 pbc="T T T"
Si       2.29651533       0.64244502      -0.14078538       0.00000000
Si      -0.79153110       1.56243906       1.63665171       0.00000000
Si      -1.13915970       1.32178689      -2.02682337       0.00000000
Si       0.26393058      -2.32256304       1.31314046       0.00000000
Si       2.30099508      -1.43254260      -1.87256704       0.00000000
Si       1.86683400       3.14987254      -0.03086515       0.00000000
Si      -0.21271482       3.67813443       0.97713037       0.00000000
Si      -1.55887155      -3.61199799       0.53960206       0.00000000
Si      -3.44580741      -1.97656344       0.26053107       0.00000000
Si      -3.12479667       2.13744348       1.37070449       0.00000000
