10
Lattice="16.28999089631971 0.0 0.0 0.0 16.28999089631971 0.0 0.0 0.0 34.71893929493243" Properties=species:S:1:pos:R:3:initial_magmoms:R:1 pbc="T T T"
Si       1.31659364      -1.29417275       1.38678631       0.00000000
Si       0.89663744       1.86110969      -1.16552447       0.00000000
Si      -0.70623992      -1.84011581      -1.33818591       0.00000000
Si      -1.42454258       1.38521363       1.32812169       0.00000000
Si       1.93924631       0.13876636      -2.47088723       0.00000000
Si       0.06451655      -1.08465336      -3.44909389       0.00000000
Si       2.59307804      -2.69405390       0.11447188       0.00000000
Si      -2.68617606      -2.63110934      -0.14333375       0.00000000
Si      -0.05280241      -2.66264678       2.70294732       0.00000000
Si       2.66302730       0.05036868       2.70277372       0.00000000
