10
Lattice="16.28999089631971 0.0 0.0 0.0 16.28999089631971 0.0 0.0 0.0 34.71893929493243" Properties=species:S:1:pos:R:3:initial_magmoms:R:1 pbc="T T T"
Si      -0.82272645       1.44353835       1.70386762       0.00000000
Si      -0.94532499       1.09921662      -1.94044260       0.00000000
Si      -0.91447173      -2.24551134       0.17748332       0.00000000
Si       2.47013415       0.00356751       0.14495165       0.00000000
Si       0.50391486       0.31392459       3.57990655       0.00000000
Si       2.84726394       2.30450836      -0.56439139       0.00000000
Si       1.05606441      -3.49128909       0.74270796       0.00000000
Si      -1.15970139      -2.90952432      -2.08539425       0.00000000
Si      -3.21102453       0.32894397      -2.27461258       0.00000000
Si      -2.91038769       0.68043330       2.60472044       0.00000000
