10
Lattice="16.28999089631971 0.0 0.0 0.0 16.28999089631971 0.0 0.0 0.0 34.71893929493243" Properties=species:S:1:pos:R:3:initial_magmoms:R:1 pbc="T T T"
Si      -1.34651511      -1.35330478       1.36339615       0.00000000
Si       1.36676358       1.35536058       1.36294480       0.00000000
Si       1.24629903      -1.38634416      -1.45577635       0.00000000
Si      -1.49670891       1.22968323      -1.39517441       0.00000000
Si       1.96129971       0.58293765      -2.71436087       0.00000000
Si       0.15700302       2.28009501      -2.68646741       0.00000000
Si      -2.37386025      -0.70558506      -2.56972130       0.00000000
Si      -0.63469098      -2.37994619      -2.68474559       0.00000000
Si      -2.70620883      -0.00162900       2.72076856       0.00000000
Si       0.00949707       2.71371852       2.72045609       0.00000000
