10
Lattice="16.28999089631971 0.0 0.0 0.0 16.28999089631971 0.0 0.0 0.0 34.71893929493243" Properties=species:S:1:pos:R:3:initial_magmoms:R:1 pbc="T T T"
Si       1.35369900      -1.35449232      -1.35591421       0.00000000
Si       1.35329175       1.34772057       1.36570496       0.00000000
Si      -1.35907470       1.35904212      -1.35480321       0.00000000
Si      -1.35658233      -1.34633918       1.38559892       0.00000000
Si      -0.06024042       2.60706789       2.77713479       0.00000000
Si       2.70826137      -2.70867276       0.00534672       0.00000000
Si       2.71239903       0.00301365      -2.71203674       0.00000000
Si      -0.00245979      -2.71243028      -2.71238393       0.00000000
Si      -2.71741635       0.00247608      -2.71179371       0.00000000
Si      -0.00239463       2.71788876      -2.71175899       0.00000000
