10
Lattice="16.28999089631971 0.0 0.0 0.0 16.28999089631971 0.0 0.0 0.0 34.71893929493243" Properties=species:S:1:pos:R:3:initial_magmoms:R:1 pbc="T T T"
Si       0.38449287       0.22487368      -2.27631381       0.00000000
Si       1.69881894       0.29110719       1.56610279       0.00000000
Si      -2.07954882       0.52826189       1.00799553       0.00000000
Si       0.42968133      -2.50742752      -0.10992022       0.00000000
Si       1.61966583      -2.09890690       1.95644804       0.00000000
Si       2.09952036      -1.51303705      -2.25610737       0.00000000
Si      -2.65836510      -1.58743348       1.66751687       0.00000000
Si      -1.86683400      -3.14987254       0.03086515       0.00000000
Si       1.14911289       2.27514448       2.74314493       0.00000000
Si      -1.41978753      -0.79709155      -3.43193435       0.00000000
