10
Lattice="16.28999089631971 0.0 0.0 0.0 16.28999089631971 0.0 0.0 0.0 34.71893929493243" Properties=species:S:1:pos:R:3:initial_magmoms:R:1 pbc="T T T"
Si      -0.60518979      -2.20778044       0.60643605       0.00000000
Si       0.28828413       1.40154273       1.94735167       0.00000000
Si      -1.88318916       1.03881330      -1.11520767       0.00000000
Si       2.39901201      -0.05235606      -0.80089694       0.00000000
Si       1.08659187      -2.40297862       2.32905191       0.00000000
Si      -0.80485632       3.15068148      -1.64470651       0.00000000
Si       2.86935318       2.23692651      -0.72954948       0.00000000
Si      -0.49409199      -3.45503474      -1.44958596       0.00000000
Si       0.88339041      -0.22846725       3.67396021       0.00000000
Si       2.22402483       2.70586674       1.49416511       0.00000000
