10
Lattice="16.28999089631971 0.0 0.0 0.0 16.28999089631971 0.0 0.0 0.0 34.71893929493243" Properties=species:S:1:pos:R:3:initial_magmoms:R:1 pbc="T T T"
Si       1.39186647      -0.25021440      -1.84572928       0.00000000
Si       0.69714684       1.08680364       1.98654938       0.00000000
Si      -0.79219899      -2.04001299       0.94425152       0.00000000
Si      -1.97680779       1.08444159      -1.04896390       0.00000000
Si       3.15125163       1.07991297      -0.68788673       0.00000000
Si      -2.75773410      -1.11065220       1.94311596       0.00000000
Si      -3.36088764       0.98275941       0.91824702       0.00000000
Si       0.72699012      -2.46510054       2.64214748       0.00000000
Si       2.97432594       1.53709182       1.71192242       0.00000000
Si       0.41661675      -0.44530344       3.73260053       0.00000000
