10
Lattice="16.28999089631971 0.0 0.0 0.0 16.28999089631971 0.0 0.0 0.0 34.71893929493243" Properties=species:S:1:pos:R:3:initial_magmoms:R:1 pbc="T T T"
Si      -0.92523942      -1.34242632       1.67071101       0.00000000
Si       1.53186273      -1.47575997      -1.09083496       0.00000000
Si       1.00266579       1.61215614       1.48058999       0.00000000
Si      -0.98054397       1.75655070      -1.35792791       0.00000000
Si      -2.04380856       1.66777020       1.51214953       0.00000000
Si      -3.10625865      -0.56040858       1.35636556       0.00000000
Si       0.77553432       1.96599123      -2.97586611       0.00000000
Si      -0.19912896      -3.55840389       1.19610285       0.00000000
Si       3.46760343      -0.17143596      -1.54402153       0.00000000
Si       2.12696901      -3.10576995       0.63577357       0.00000000
