10
Lattice="16.28999089631971 0.0 0.0 0.0 16.28999089631971 0.0 0.0 0.0 34.71893929493243" Properties=species:S:1:pos:R:3:initial_magmoms:R:1 pbc="T T T"
Si       1.44018261      -1.32882417       1.29272571       0.00000000
Si       1.36544409       1.33525872      -1.38150209       0.00000000
Si      -1.34957763      -1.37899737      -1.37990501       0.00000000
Si      -1.21052619       1.43827668       1.66328115       0.00000000
Si      -2.69498502       2.68589520       0.01517218       0.00000000
Si      -2.71021617      -2.72233593       0.00736042       0.00000000
Si       0.00899208       2.69558775      -2.74199920       0.00000000
Si       2.74444146       2.69457777      -0.01034625       0.00000000
Si      -2.70544320      -0.01987380      -2.74175617       0.00000000
Si       2.73419505      -2.73315249      -0.03839917       0.00000000
