10
Lattice="16.28999089631971 0.0 0.0 0.0 16.28999089631971 0.0 0.0 0.0 34.71893929493243" Properties=species:S:1:pos:R:3:initial_magmoms:R:1 pbc="T T T"
Si      -1.19632131      -1.58003226       1.48673525       0.00000000
Si       1.21052619      -1.43827668      -1.66328115       0.00000000
Si      -1.48445883       1.24761852      -1.64810897       0.00000000
Si       1.69308486       1.48232484       1.30654385       0.00000000
Si       2.64606615       2.71515204      -0.37527722       0.00000000
Si       2.65070880      -2.76710085      -0.37055545       0.00000000
Si      -2.78480808      -2.73587292      -0.07756215       0.00000000
Si      -2.92118796       2.60115462      -0.26775261       0.00000000
Si       0.74823228      -2.84369643       2.59357565       0.00000000
Si       2.57597028      -0.10301796      -3.04478324       0.00000000
