10
Lattice="16.28999089631971 0.0 0.0 0.0 16.28999089631971 0.0 0.0 0.0 34.71893929493243" Properties=species:S:1:pos:R:3:initial_magmoms:R:1 pbc="T T T"
Si       1.44850680      -0.71847045      -1.66498238       0.00000000
Si      -1.08416466      -2.02155642       0.41065584       0.00000000
Si       1.05593409       0.33756138       2.06772230       0.00000000
Si      -0.81829557       2.07673065      -0.75072804       0.00000000
Si       1.25364582       1.22323239      -3.05957352       0.00000000
Si      -2.70620883      -1.30161987       1.92002785       0.00000000
Si       3.33140274       0.11907990       1.36869079       0.00000000
Si       3.26783916      -1.56941118      -0.26660688       0.00000000
Si       0.45152622      -3.29468508       1.71758161       0.00000000
Si       0.24853653       2.40355692       2.91594118       0.00000000
