10
Lattice="16.28999089631971 0.0 0.0 0.0 16.28999089631971 0.0 0.0 0.0 34.71893929493243" Properties=species:S:1:pos:R:3:initial_magmoms:R:1 pbc="T T T"
Si      -1.35671265       1.35749457       1.35955970       0.00000000
Si       1.35829278      -1.35997065       1.35938611       0.00000000
Si      -1.36663326      -1.33244055      -1.37838779       0.00000000
Si       1.36052451       1.35119034      -1.39654581       0.00000000
Si       0.02505402      -2.60683983      -2.78627629       0.00000000
Si      -0.20101860       2.59986771      -2.81320431       0.00000000
Si      -2.71081890       2.71673217       0.00659660       0.00000000
Si      -2.71052568      -2.71709055      -0.00368021       0.00000000
Si      -2.71261080      -0.00083079       2.71623773       0.00000000
Si       2.71585251       2.71425609      -0.00565919       0.00000000
