10
Lattice="16.28999089631971 0.0 0.0 0.0 16.28999089631971 0.0 0.0 0.0 34.71893929493243" Properties=species:S:1:pos:R:3:initial_magmoms:R:1 pbc="T T T"
Si       1.46460132       0.75093642       1.64036664       0.00000000
Si      -0.15240924      -2.22500223       0.75423466       0.00000000
Si       1.26543978       0.62931528      -1.92589536       0.00000000
Si      -2.28345075       0.75077352       0.02458102       0.00000000
Si      -2.17833138      -2.89999467      -0.15415218       0.00000000
Si      -3.47387508      -1.18477170       0.76881662       0.00000000
Si       1.11071736      -0.57251205       3.53973672       0.00000000
Si       1.91659995      -3.27352437       0.75520679       0.00000000
Si      -0.15534144      -2.42002611       3.06405226       0.00000000
Si      -3.01259115       1.14078870      -2.21482653       0.00000000
