10
Lattice="16.28999089631971 0.0 0.0 0.0 16.28999089631971 0.0 0.0 0.0 34.71893929493243" Properties=species:S:1:pos:R:3:initial_magmoms:R:1 pbc="T T T"
Si      -1.26543978      -0.62931528       1.92589536       0.00000000
Si       2.29104189      -0.64172826      -0.42419624       0.00000000
Si      -1.18998450      -0.40852062      -2.06636826       0.00000000
Si       0.07915311       2.39001408      -0.39034525       0.00000000
Si      -1.61966583       2.09890690      -1.95644804       0.00000000
Si       0.19916154       0.12162114       3.56626200       0.00000000
Si       2.36493333       2.64489068      -0.88498626       0.00000000
Si       3.56480586      -0.01172880       1.48697828       0.00000000
Si      -3.54889053       0.12145824       1.95047638       0.00000000
Si      -3.48649983      -1.05096564      -1.92558289       0.00000000
