10
Lattice="16.28999089631971 0.0 0.0 0.0 16.28999089631971 0.0 0.0 0.0 34.71893929493243" Properties=species:S:1:pos:R:3:initial_magmoms:R:1 pbc="T T T"
Si      -0.03534930      -1.11275361       2.04393982       0.00000000
Si      -2.11628277      -0.49495536      -1.00553048       0.00000000
Si       0.48812985       2.29672710       0.68510921       0.00000000
Si       1.21700961      -1.85846094      -1.10597243       0.00000000
Si       2.48306841      -0.01094688      -0.63028798       0.00000000
Si      -1.41667614       0.37082556       3.34607436       0.00000000
Si       2.28384171      -1.53163467       2.56069680       0.00000000
Si       3.50389755       0.17586684       1.47093812       0.00000000
Si      -2.86003530      -2.50750341       0.10804540       0.00000000
Si      -1.41459102      -3.00205152       1.97307842       0.00000000
