10
Lattice="16.28999089631971 0.0 0.0 0.0 16.28999089631971 0.0 0.0 0.0 34.71893929493243" Properties=species:S:1:pos:R:3:initial_magmoms:R:1 pbc="T T T"
Si      -1.23703002       1.42288263       1.41664114       0.00000000
Si       1.80148408       0.70068177      -1.37861837       0.00000000
Si       1.45447450      -1.32305751       1.40593729       0.00000000
Si      -2.00585286      -0.71889399      -1.29991049       0.00000000
Si       0.51129423      -0.05600502      -3.44616708       0.00000000
Si      -2.66396886       2.69977428       0.00648897       0.00000000
Si       2.74366998       2.62816344      -0.09263018       0.00000000
Si      -2.60038899       0.05352894       2.77739518       0.00000000
Si      -2.72085354      -2.68817580      -0.04132598       0.00000000
Si       0.11637576      -2.65636958       2.77857562       0.00000000
