10
Lattice="16.28999089631971 0.0 0.0 0.0 16.28999089631971 0.0 0.0 0.0 34.71893929493243" Properties=species:S:1:pos:R:3:initial_magmoms:R:1 pbc="T T T"
Si       0.47034117       2.28928257       0.07134746       0.00000000
Si       0.12696426      -0.70095870      -2.26180128       0.00000000
Si       1.86978249      -1.31087259       0.81895080       0.00000000
Si      -2.39901201       0.05235606       0.80089694       0.00000000
Si      -0.97520085       2.95147107      -1.70029156       0.00000000
Si      -0.17498718       2.75822280       2.29506205       0.00000000
Si      -0.45558243       1.33045317      -3.32916623       0.00000000
Si      -1.39579236      -2.53662504      -2.38692841       0.00000000
Si      -2.11072788       1.45389879       2.74824861       0.00000000
Si       3.56173261      -1.05622731      -0.85853041       0.00000000
