10
Lattice="16.28999089631971 0.0 0.0 0.0 16.28999089631971 0.0 0.0 0.0 34.71893929493243" Properties=species:S:1:pos:R:3:initial_magmoms:R:1 pbc="T T T"
Si      -0.07885989      -1.67024532       1.67949491       0.00000000
Si       2.30615901      -0.23841067      -0.50054323       0.00000000
Si      -1.69178166       0.19519818      -1.72261585       0.00000000
Si      -0.20320146       2.17451137       1.34490830       0.00000000
Si      -2.28674133      -0.99445467       2.04352319       0.00000000
Si      -1.08659187       2.40297862      -2.32905191       0.00000000
Si      -2.52929943       1.72187743       1.90523758       0.00000000
Si      -0.13489749      -3.67213971       0.44683300       0.00000000
Si      -0.79830774       3.80452135      -0.38170023       0.00000000
Si       3.61542282       1.01898022       1.09541787       0.00000000
