10
Lattice="16.28999089631971 0.0 0.0 0.0 16.28999089631971 0.0 0.0 0.0 34.71893929493243" Properties=species:S:1:pos:R:3:initial_magmoms:R:1 pbc="T T T"
Si       1.35177678       1.34998488       1.36054572       0.00000000
Si       1.23703002      -1.42288263      -1.41664114       0.00000000
Si      -1.36335897      -1.36935369       1.36075404       0.00000000
Si      -1.42693884       1.27689165      -1.41015217       0.00000000
Si      -0.76882284      -2.14177662      -2.71655163       0.00000000
Si      -2.57311953      -0.44461926      -2.68865817       0.00000000
Si       2.70275535       2.69519679      -0.03471201       0.00000000
Si      -0.00467523       2.70560610       2.71923745       0.00000000
Si       2.70920619      -0.00951336       2.71864723       0.00000000
Si      -2.73429279       2.69842221      -0.01491179       0.00000000
