10
Lattice="16.28999089631971 0.0 0.0 0.0 16.28999089631971 0.0 0.0 0.0 34.71893929493243" Properties=species:S:1:pos:R:3:initial_magmoms:R:1 pbc="T T T"
Si      -1.07775522      -0.92913273      -1.84180604       0.00000000
Si       0.95881148      -1.53298674       1.49301938       0.00000000
Si       1.41400295       1.42737867      -1.21224716       0.00000000
Si      -1.61822484       1.22504058       1.20561584       0.00000000
Si      -2.62022274       2.29283379      -0.73434070       0.00000000
Si       2.36424752      -0.07938117       2.73929112       0.00000000
Si       0.13582113      -2.97254056      -2.13108440       0.00000000
Si      -2.92885308      -2.17248327      -1.10305604       0.00000000
Si       1.41100559       0.75714291      -3.48088808       0.00000000
Si       0.60609063       3.63799683      -1.08375230       0.00000000
