10
Lattice="16.28999089631971 0.0 0.0 0.0 16.28999089631971 0.0 0.0 0.0 34.71893929493243" Properties=species:S:1:pos:R:3:initial_magmoms:R:1 pbc="T T T"
Si      -1.35553977       1.35578412      -1.36261497       0.00000000
Si       1.35980353      -1.35977517      -1.36192059       0.00000000
Si      -1.36809936      -1.34513046       1.37757884       0.00000000
Si       1.35141093       1.35516510       1.39448698       0.00000000
Si      -2.71252935       2.70938538      -0.00708267       0.00000000
Si       2.71616921       2.71295289       0.00260392       0.00000000
Si      -2.71521720      -2.71601541      -0.00489537       0.00000000
Si       0.00191031       2.71305063      -2.71943188       0.00000000
Si      -2.71321353      -0.00153126      -2.71929300       0.00000000
Si       2.71722806      -2.71795392      -0.00350661       0.00000000
