10
Lattice="16.28999089631971 0.0 0.0 0.0 16.28999089631971 0.0 0.0 0.0 34.71893929493243" Properties=species:S:1:pos:R:3:initial_magmoms:R:1 pbc="T T T"
Si      -1.39186647       0.25021440       1.84572928       0.00000000
Si       1.39331628      -1.84067226      -0.38222102       0.00000000
Si      -1.19378007       0.04364091      -2.09969847       0.00000000
Si       1.75938516       1.33012737       1.15784255       0.00000000
Si       3.32056989      -0.41604660       0.32108093       0.00000000
Si       0.68725881       0.80992251      -3.28757292       0.00000000
Si      -3.36867426       1.33465599       0.79676538       0.00000000
Si       1.46911365       2.85389397      -1.91273687       0.00000000
Si       0.65142081      -3.51895928       1.11829766       0.00000000
Si      -2.18406546      -1.78979859       2.78998080       0.00000000
