10
Lattice="16.28999089631971 0.0 0.0 0.0 16.28999089631971 0.0 0.0 0.0 34.71893929493243" Properties=species:S:1:pos:R:3:initial_magmoms:R:1 pbc="T T T"
Si      -0.19564290      -1.01861370       2.12910542       0.00000000
Si       2.29311791       0.66766194       0.49002338       0.00000000
Si      -1.56118473       1.74617397       0.83676162       0.00000000
Si      -1.92725361      -1.42462566      -0.70330195       0.00000000
Si       1.25411076      -0.21183516      -2.20389006       0.00000000
Si       1.09993568       3.04372134       0.63146842       0.00000000
Si      -3.32056989       0.41604660      -0.32108093       0.00000000
Si       1.01793345      -3.06202153       1.83982706       0.00000000
Si       2.29611527       1.33789770       2.75866430       0.00000000
Si      -1.35474156      -2.95810110      -2.34415465       0.00000000
