10
Lattice="16.28999089631971 0.0 0.0 0.0 16.28999089631971 0.0 0.0 0.0 34.71893929493243" Properties=species:S:1:pos:R:3:initial_magmoms:R:1 pbc="T T T"
Si       1.87343145       0.58520196      -1.34869267       0.00000000
Si      -1.83845682       1.66827519      -0.18022611       0.00000000
Si      -0.78185484      -2.04397146      -1.37483605       0.00000000
Si       0.77742396       0.67572549       2.39599006       0.00000000
Si       0.29027151      -1.52376660       3.07057943       0.00000000
Si       0.60360966       1.84823082      -2.88594400       0.00000000
Si      -0.63172620       3.21486408      -1.47000071       0.00000000
Si      -2.11649454      -0.86501529      -2.89035331       0.00000000
Si       3.24046123       1.82505015       0.22331234       0.00000000
Si      -1.46911365      -2.85389397       1.91273687       0.00000000
