10
Lattice="16.28999089631971 0.0 0.0 0.0 16.28999089631971 0.0 0.0 0.0 34.71893929493243" Properties=species:S:1:pos:R:3:initial_magmoms:R:1 pbc="T T T"
Si      -0.62042094       2.24933949      -0.24397012       0.00000000
Si       0.64532835      -0.46894023      -2.22371459       0.00000000
Si      -1.93574070      -1.30432401       0.45318657       0.00000000
Si       1.86083928      -0.34529913       1.46114738       0.00000000
Si       0.17498718      -2.75822280      -2.29506205       0.00000000
Si       3.50092692      -1.09059921      -0.06797972       0.00000000
Si       2.96221174      -0.11657124      -2.18017701       0.00000000
Si      -2.69206911       2.13742719      -1.43184458       0.00000000
Si      -3.46760343       0.17143596       1.54402153       0.00000000
Si      -2.22402483      -2.70586674      -1.49416511       0.00000000
