10
Lattice="16.28999089631971 0.0 0.0 0.0 16.28999089631971 0.0 0.0 0.0 34.71893929493243" Properties=species:S:1:pos:R:3:initial_magmoms:R:1 pbc="T T T"
Si      -1.35431802      -1.35014778       1.35924723       0.00000000
Si       1.36075257       1.36329381       1.35966386       0.00000000
Si      -1.24186815       1.34956134      -1.49841818       0.00000000
Si       1.22277627      -1.39714443      -1.48384316       0.00000000
Si       2.06210223       0.64811394      -2.42625388       0.00000000
Si       0.45224298       2.39919120      -2.72389122       0.00000000
Si      -2.30767398      -0.32835753      -2.82159037       0.00000000
Si      -0.67759884      -2.31404337      -2.81169547       0.00000000
Si       0.00340461      -2.70840798       2.71776537       0.00000000
Si      -2.71063971       2.71554300      -0.03834015       0.00000000
