10
Lattice="16.28999089631971 0.0 0.0 0.0 16.28999089631971 0.0 0.0 0.0 34.71893929493243" Properties=species:S:1:pos:R:3:initial_magmoms:R:1 pbc="T T T"
Si       1.35609363       1.35646830      -1.35789319       0.00000000
Si       1.35599589      -1.36166481       1.35518511       0.00000000
Si      -1.35889551      -1.35821133      -1.35778904       0.00000000
Si      -1.36076886       1.35467640       1.36053183       0.00000000
Si       0.00798210      -2.71373481       2.70363475       0.00000000
Si       2.71332756       2.71339272      -0.00059022       0.00000000
Si       2.71274112      -0.00053757      -2.71491841       0.00000000
Si       2.71298547      -2.71526607      -0.00034719       0.00000000
Si      -0.00198738       2.71381626      -2.71446707       0.00000000
Si      -2.71533123      -2.71448415      -0.00059022       0.00000000
