10
Lattice="16.28999089631971 0.0 0.0 0.0 16.28999089631971 0.0 0.0 0.0 34.71893929493243" Properties=species:S:1:pos:R:3:initial_magmoms:R:1 pbc="T T T"
Si      -0.79990416      -1.69375275       1.41125623       0.00000000
Si      -0.96327657       0.36598743      -2.16323416       0.00000000
Si      -0.36507519       1.98127125       1.31393899       0.00000000
Si       2.21481188      -0.50632578      -0.85943310       0.00000000
Si      -0.86346774      -3.38224383      -0.22404144       0.00000000
Si      -0.32234652       3.68724150      -0.30493661       0.00000000
Si      -1.10550456       2.71223613      -2.30440145       0.00000000
Si       1.40190111       2.04509547       2.92177397       0.00000000
Si       3.75946226       0.94035654       0.09110255       0.00000000
Si       0.30952629      -0.89806770      -3.77488822       0.00000000
