10
Lattice="16.28999089631971 0.0 0.0 0.0 16.28999089631971 0.0 0.0 0.0 34.71893929493243" Properties=species:S:1:pos:R:3:initial_magmoms:R:1 pbc="T T T"
Si      -0.47618928       0.96703956       2.05272371       0.00000000
Si       0.62042094      -2.24933949       0.24397012       0.00000000
Si      -2.07164817      -0.11191230      -1.18787445       0.00000000
Si       1.71962127       1.15882173      -1.26484638       0.00000000
Si       1.26574929      -2.71827972      -1.97974446       0.00000000
Si      -1.80405234       1.82772171      -2.54476080       0.00000000
Si       0.47141631       1.60924023      -3.24379231       0.00000000
Si      -1.84451670      -0.46574739       3.26858165       0.00000000
Si       1.63149237       1.12720284       3.22275262       0.00000000
Si      -1.31531976      -3.55366350       0.69715669       0.00000000
