10
Lattice="16.28999089631971 0.0 0.0 0.0 16.28999089631971 0.0 0.0 0.0 34.71893929493243" Properties=species:S:1:pos:R:3:initial_magmoms:R:1 pbc="T T T"
Si      -1.07769753       1.18167660       1.78924154       0.00000000
Si       2.16574640      -0.42622785       0.99164290       0.00000000
Si      -0.87469155      -2.11115142      -0.83745600       0.00000000
Si       0.07890876       2.07811530      -1.30588419       0.00000000
Si      -0.06353100       3.16889370       0.82585987       0.00000000
Si      -0.04175127       0.03503979       3.63486666       0.00000000
Si       1.21248166      -3.30727725      -0.95806967       0.00000000
Si       2.13802082       0.92631456       2.95055599       0.00000000
Si       2.18680937      -2.86660017       1.20349798       0.00000000
Si      -2.12289651      -1.66073292      -2.81640193       0.00000000
