10
Lattice="16.28999089631971 0.0 0.0 0.0 16.28999089631971 0.0 0.0 0.0 34.71893929493243" Properties=species:S:1:pos:R:3:initial_magmoms:R:1 pbc="T T T"
Si       1.14148917       0.58927446      -1.90673049       0.00000000
Si      -2.22415515       0.72262440       0.17255322       0.00000000
Si       0.14222799      -2.34624870       0.14116729       0.00000000
Si       0.78315804       0.97500537       1.99946483       0.00000000
Si      -2.57803911      -0.60082407       2.07192330       0.00000000
Si       3.20268472      -0.42583689      -1.69501428       0.00000000
Si       2.20933125       2.61901728      -1.35945555       0.00000000
Si       1.10550456      -2.71223613       2.30440145       0.00000000
Si       0.74042937      -0.73096488       3.61834044       0.00000000
Si      -0.76620015       2.73057445       2.52142966       0.00000000
