10
Lattice="16.28999089631971 0.0 0.0 0.0 16.28999089631971 0.0 0.0 0.0 34.71893929493243" Properties=species:S:1:pos:R:3:initial_magmoms:R:1 pbc="T T T"
Si       2.16852480      -0.80801658      -0.16383877       0.00000000
Si       0.05603760       2.00189439       1.23266191       0.00000000
Si      -1.90358424      -1.07137701      -0.87470945       0.00000000
Si      -1.51009929      -2.67574653       1.10746534       0.00000000
Si       3.18269133       1.17920052      -1.12722043       0.00000000
Si       0.13489749       3.67213971      -0.44683300       0.00000000
Si      -2.15184384       2.67768504       1.59669019       0.00000000
Si      -1.95954039      -1.36594908      -3.22223184       0.00000000
Si       1.25739252      -0.31710114       3.81648153       0.00000000
Si       3.20447106      -1.95465339       1.68178636       0.00000000
