10
Lattice="16.28999089631971 0.0 0.0 0.0 16.28999089631971 0.0 0.0 0.0 34.71893929493243" Properties=species:S:1:pos:R:3:initial_magmoms:R:1 pbc="T T T"
Si      -1.88960483       1.53375237       0.41884952       0.00000000
Si       1.26002498       0.80992251      -2.02779550       0.00000000
Si      -1.03983698      -2.18808909      -1.09878560       0.00000000
Si       1.82771519       0.18751419       2.14118762       0.00000000
Si       3.30603269      -0.38172357      -1.57144951       0.00000000
Si      -0.96853565       3.71156247       0.40357318       0.00000000
Si       3.77349053      -0.43950420       0.82016596       0.00000000
Si       0.60025066      -2.93338917      -2.62791270       0.00000000
Si       0.62092267      -1.25880975       3.75141616       0.00000000
Si      -0.32126323      -3.18629142       2.46542798       0.00000000
