10
Lattice="16.28999089631971 0.0 0.0 0.0 16.28999089631971 0.0 0.0 0.0 34.71893929493243" Properties=species:S:1:pos:R:3:initial_magmoms:R:1 pbc="T T T"
Si      -1.34974542      -1.34687349       1.36124357       0.00000000
Si       1.23559650      -1.35397593      -1.47339275       0.00000000
Si      -1.41104957       1.38153861      -1.28393487       0.00000000
Si       1.36518345       1.36544409       1.36225042       0.00000000
Si       2.30474178       0.30476961      -2.85195210       0.00000000
Si       2.70216891      -2.70153360      -0.00992268       0.00000000
Si      -2.70835001       0.00734679       2.72212260       0.00000000
Si       0.00925272      -2.71000440       2.72215732       0.00000000
Si      -2.71390490      -2.71821456      -0.03193103       0.00000000
Si       2.72205900       0.00667890       2.72125462       0.00000000
