10
Lattice="16.28999089631971 0.0 0.0 0.0 16.28999089631971 0.0 0.0 0.0 34.71893929493243" Properties=species:S:1:pos:R:3:initial_magmoms:R:1 pbc="T T T"
Si      -1.35734633      -1.35641943       1.35719881       0.00000000
Si      -1.35733493       1.35718506      -1.35778904       0.00000000
Si       1.35827649       1.35913986       1.35626140       0.00000000
Si       1.35760860      -1.35817875      -1.35810151       0.00000000
Si      -2.71496375      -0.00050499       2.71227977       0.00000000
Si      -2.71420505       2.71407690      -0.00072910       0.00000000
Si       0.00074934       2.71389771       2.71460594       0.00000000
Si       2.71397916      -0.00050499      -2.71550864       0.00000000
Si       2.71508688       2.71505430      -0.00052078       0.00000000
Si      -2.71497566      -2.71524978       0.00003472       0.00000000
