10
Lattice="16.28999089631971 0.0 0.0 0.0 16.28999089631971 0.0 0.0 0.0 34.71893929493243" Properties=species:S:1:pos:R:3:initial_magmoms:R:1 pbc="T T T"
Si      -1.36702978      -1.23984819      -1.57200501       0.00000000
Si       1.50081562      -1.44003600       1.32473659       0.00000000
Si       1.33513003       1.40100516      -1.57172726       0.00000000
Si      -2.05019980       2.40464835      -0.14786805       0.00000000
Si       0.89205832       1.41472134       2.76040025       0.00000000
Si      -0.28906931      -2.05126938       2.64197388       0.00000000
Si      -2.46303727      -1.14932466       2.17267772       0.00000000
Si      -0.99133447       2.78962992       2.05754965       0.00000000
Si      -3.24046123      -1.82505015      -0.22331234       0.00000000
Si       2.79315019      -2.77635357      -0.16543584       0.00000000
