10
Lattice="16.28999089631971 0.0 0.0 0.0 16.28999089631971 0.0 0.0 0.0 34.71893929493243" Properties=species:S:1:pos:R:3:initial_magmoms:R:1 pbc="T T T"
Si      -2.00277961      -0.97832853      -0.58407704       0.00000000
Si       2.02724326      -0.52782858      -1.04170764       0.00000000
Si      -0.21512574       2.20613841      -0.80860455       0.00000000
Si      -0.09749402      -0.58658661       2.33137808       0.00000000
Si      -3.27558247       0.28572660       1.02757702       0.00000000
Si      -1.35688111      -3.20587200      -0.16147788       0.00000000
Si       2.45778796       2.12643144       1.55804799       0.00000000
Si       3.40306408       1.32357879      -0.46294260       0.00000000
Si       1.44715636       0.86009571       3.28191373       0.00000000
Si       0.81287100       3.63807828       0.80315367       0.00000000
