10
Lattice="16.28999089631971 0.0 0.0 0.0 16.28999089631971 0.0 0.0 0.0 34.71893929493243" Properties=species:S:1:pos:R:3:initial_magmoms:R:1 pbc="T T T"
Si       1.70274483       0.92929563       1.20005699       0.00000000
Si      -1.00076963      -1.74053763       1.13769479       0.00000000
Si       1.41231042      -0.93291201      -1.63569525       0.00000000
Si      -1.59657313       1.78323372      -0.25260080       0.00000000
Si      -2.31759980      -0.37587546       2.44748140       0.00000000
Si       0.42626043       2.32917678       2.47237142       0.00000000
Si      -0.43536654      -1.46855979      -3.11701434       0.00000000
Si      -0.82581666       2.53869617      -2.36350878       0.00000000
Si       2.66136246       2.50649410      -0.19650097       0.00000000
Si      -3.57650927       0.99224019       0.94225136       0.00000000
