10
Lattice="16.28999089631971 0.0 0.0 0.0 16.28999089631971 0.0 0.0 0.0 34.71893929493243" Properties=species:S:1:pos:R:3:initial_magmoms:R:1 pbc="T T T"
Si      -1.35691085      -1.35648459      -1.35719881       0.00000000
Si       1.35804354      -1.35666378       1.35813623       0.00000000
Si       1.35778290       1.35860976      -1.35688634       0.00000000
Si      -1.35571474       1.35710122       1.36407317       0.00000000
Si       2.71557069      -2.71142163      -0.00020831       0.00000000
Si      -0.00004073      -2.71337643      -2.71425875       0.00000000
Si      -2.71465912       0.00117288      -2.71366853       0.00000000
Si       2.71482135       0.00179190      -2.71398100       0.00000000
Si      -2.71478944      -2.71441899       0.00013888       0.00000000
Si      -0.00004561       2.71651293      -2.71408516       0.00000000
