10
Lattice="16.28999089631971 0.0 0.0 0.0 16.28999089631971 0.0 0.0 0.0 34.71893929493243" Properties=species:S:1:pos:R:3:initial_magmoms:R:1 pbc="T T T"
Si      -0.95859319      -1.82741220      -1.09246675       0.00000000
Si      -0.45621285       1.92435399      -1.25165318       0.00000000
Si      -0.76434472      -0.19668546       2.24138654       0.00000000
Si       2.34999540      -0.19937331       0.42200894       0.00000000
Si       0.92479959      -3.20232078      -0.38961615       0.00000000
Si       0.67655628       0.56674539      -3.33920001       0.00000000
Si      -2.80548728       1.76042772      -1.33716598       0.00000000
Si      -2.82554027       0.81842589       2.02967033       0.00000000
Si      -0.33833027       3.51593653       0.70031612       0.00000000
Si       3.28834827       1.91663253      -0.01218635       0.00000000
