10
Lattice="16.28999089631971 0.0 0.0 0.0 16.28999089631971 0.0 0.0 0.0 34.71893929493243" Properties=species:S:1:pos:R:3:initial_magmoms:R:1 pbc="T T T"
Si       1.64491696      -1.51164684       0.75489432       0.00000000
Si      -1.16251304       0.46843524       2.01099153       0.00000000
Si       1.46163817       1.83737746      -0.35920235       0.00000000
Si      -1.02799674      -1.43193987      -1.61175822       0.00000000
Si      -2.02135021       1.61291430      -1.27619948       0.00000000
Si      -3.08919229      -0.41682852      -1.82347443       0.00000000
Si       2.59019308      -2.31449949      -1.26609627       0.00000000
Si      -1.23661137       2.82611042       2.13351473       0.00000000
Si       0.22100806       3.72023594       0.47127515       0.00000000
Si       0.63428536      -2.77798257       2.47876006       0.00000000
