10
Lattice="16.28999089631971 0.0 0.0 0.0 16.28999089631971 0.0 0.0 0.0 34.71893929493243" Properties=species:S:1:pos:R:3:initial_magmoms:R:1 pbc="T T T"
Si      -2.28501037      -0.49953285       0.07172937       0.00000000
Si      -0.07409832       2.35767518       0.12252321       0.00000000
Si       1.16251304      -0.46843524      -2.01099153       0.00000000
Si       1.06288015      -1.36821339       1.70098594       0.00000000
Si      -0.85883716       1.14447906      -3.28719101       0.00000000
Si      -2.32773904      -2.20550310       1.69060497       0.00000000
Si       1.12315640       2.73643397       2.12209219       0.00000000
Si       2.80743000      -1.98008208      -1.25609721       0.00000000
Si       1.79679840      -3.24641781       0.46776853       0.00000000
Si       2.62415121       1.36894222      -2.37019387       0.00000000
