10
Lattice="10.86 0.0 0.0 0.0 10.86 0.0 0.0 0.0 10.86" Properties=species:S:1:pos:R:3:initial_magmoms:R:1 pbc="T T T"
Si       1.38727812      -1.46670816      -1.22846148       0.00000000
Si       1.38727812       1.24829184       1.48653852       0.00000000
Si      -1.32772188      -1.46670816       1.48653852       0.00000000
Si       0.02385942       2.61103722      -2.57978214       0.00000000
Si       0.10496190      -2.60573754      -2.68837128       0.00000000
Si      -2.64747252       2.67784794       0.22068606       0.00000000
Si       2.74477812      -0.10920816      -2.58596148       0.00000000
Si       2.74477812       2.60579184       0.12903852       0.00000000
Si      -2.73916350      -2.61510972      -0.20153988       0.00000000
Si       0.02977812       2.60579184       2.84403852       0.00000000
