10
Lattice="16.290000149 0.0 0.0 0.0 16.290000149 0.0 0.0 0.0 29.1751946751" Properties=species:S:1:pos:R:3:initial_magmoms:R:1 pbc="T T T"
Si      -1.34355034      -1.37870416       1.31270871       0.00000000
Si       1.30373758      -1.34726446      -1.43121835       0.00000000
Si       1.22914567       1.43335060       1.42725052       0.00000000
Si      -1.40043502       1.34106612      -1.36000170       0.00000000
Si       0.20597076      -2.69814530       2.49649223       0.00000000
Si       2.64398105       2.71681364       0.04764309       0.00000000
Si      -2.70894557      -0.01251072       2.65966910       0.00000000
Si      -0.29569608       2.74807416       2.62159547       0.00000000
Si       2.65893527       0.00777033      -2.76478732       0.00000000
Si      -0.06481791       2.70428663      -2.72910606       0.00000000
