10
Lattice="16.290000149 0.0 0.0 0.0 16.290000149 0.0 0.0 0.0 29.1751946751" Properties=species:S:1:pos:R:3:initial_magmoms:R:1 pbc="T T T"
Si      -0.69209695       2.04772795       0.76698669       0.00000000
Si       2.05526045      -0.61419979       0.89322776       0.00000000
Si      -1.24717870      -1.78402217       0.84062488       0.00000000
Si      -0.63662950      -0.67454936      -2.14735268       0.00000000
Si      -0.68903443      -2.81923539      -1.16890417       0.00000000
H        0.68419630       2.29631335      -2.15502575       0.00000000
Si      -1.30622995       1.53552148       2.94937878       0.00000000
Si      -3.53512551       0.78474795      -0.77311348       0.00000000
Si       1.07134444       3.53288727       0.43383514       0.00000000
Si       1.53209080      -1.86703601       2.82596771       0.00000000
