10
Lattice="16.290000149 0.0 0.0 0.0 16.290000149 0.0 0.0 0.0 29.1751946751" Properties=species:S:1:pos:R:3:initial_magmoms:R:1 pbc="T T T"
Si      -1.34377840       1.35718507      -1.36817075       0.00000000
Si       1.32747374      -1.34980570      -1.39498276       0.00000000
Si       1.34744854       1.38171781       1.34949863       0.00000000
Si      -1.34464177      -1.37288863       1.36166469       0.00000000
Si       2.66789477      -2.70917363      -0.03352230       0.00000000
Si      -2.68710068       2.72183096      -0.01557955       0.00000000
Si      -2.71039538      -2.71252937      -0.00989039       0.00000000
Si       2.71858925       0.04000824       2.70433632       0.00000000
Si      -2.72728812      -0.03103245       2.70060190       0.00000000
Si       0.00361975       2.70746318      -2.72910606       0.00000000
