10
Lattice="16.290000149 0.0 0.0 0.0 16.290000149 0.0 0.0 0.0 29.1751946751" Properties=species:S:1:pos:R:3:initial_magmoms:R:1 pbc="T T T"
Si       1.72408475      -0.75816919      -1.37470600       0.00000000
Si       1.35834166       1.34627077       1.34147545       0.00000000
Si      -1.43621927       1.18467397      -1.44787739       0.00000000
Si      -1.19099449      -1.69323149       1.19049382       0.00000000
Si      -1.66119720      -0.66920950      -2.88516418       0.00000000
Si       0.65321272      -0.84576052      -3.47391961       0.00000000
Si       2.56575647      -2.60426603      -0.25026482       0.00000000
Si      -2.65069921      -0.41229990       2.53506184       0.00000000
Si      -0.08604378       2.54040923       2.69869851       0.00000000
Si       2.63702522      -0.14817384       2.68081440       0.00000000
