10
Lattice="16.290000149 0.0 0.0 0.0 16.290000149 0.0 0.0 0.0 29.1751946751" Properties=species:S:1:pos:R:3:initial_magmoms:R:1 pbc="T T T"
Si      -1.52484175       1.31472356       1.19434494       0.00000000
Si       1.41483538       1.28346305      -1.37960743       0.00000000
Si      -1.22914567      -1.43335060      -1.42725052       0.00000000
Si       0.98460019      -0.85833803       1.98697663       0.00000000
Si      -0.08430075       2.64253776       2.40531975       0.00000000
Si      -0.76018915      -1.18348480       3.48098000       0.00000000
Si       1.10192077      -3.16351151       1.75258312       0.00000000
Si      -2.67893939      -0.12954786       2.70220653       0.00000000
Si      -2.57269601      -2.81205476      -0.11454181       0.00000000
Si       0.06765237       2.61552894      -2.78844841       0.00000000
