10
Lattice="16.290000149 0.0 0.0 0.0 16.290000149 0.0 0.0 0.0 29.1751946751" Properties=species:S:1:pos:R:3:initial_magmoms:R:1 pbc="T T T"
Si       1.35586558       1.36840888       1.33733257       0.00000000
Si      -1.33029680       1.36008469      -1.37266373       0.00000000
Si       1.38370519      -1.35476438      -1.33324805       0.00000000
Si      -1.34374745      -1.36948728       1.36405705       0.00000000
Si       2.70855461       0.00294849       2.67854545       0.00000000
Si      -2.70104492      -0.00882918      -2.69669242       0.00000000
Si       0.02546127      -2.71634123      -2.68312595       0.00000000
Si      -0.02327841       2.71314839       2.69301634       0.00000000
Si      -2.69630453       2.71072118      -0.02369026       0.00000000
Si       0.05804127      -2.69658146       2.71189270       0.00000000
