10
Lattice="16.290000149 0.0 0.0 0.0 16.290000149 0.0 0.0 0.0 29.1751946751" Properties=species:S:1:pos:R:3:initial_magmoms:R:1 pbc="T T T"
Si       1.38264634      -1.34185618      -1.33893721       0.00000000
Si      -1.29650482       1.30427515      -1.46103540       0.00000000
Si       1.38655594       1.35514882       1.33645732       0.00000000
Si      -1.35247726      -1.39312081       1.34089195       0.00000000
Si      -2.77931838       0.05364297       2.46402024       0.00000000
Si      -2.65803932       2.67530672      -0.19970421       0.00000000
Si       2.70992297      -0.01837512       2.67349814       0.00000000
Si       0.01689273      -2.68149692      -2.71049229       0.00000000
Si      -2.71103069      -2.69959511      -0.04848917       0.00000000
Si       2.72728812       0.03103245      -2.70060190       0.00000000
