10
Lattice="16.290000149 0.0 0.0 0.0 16.290000149 0.0 0.0 0.0 29.1751946751" Properties=species:S:1:pos:R:3:initial_magmoms:R:1 pbc="T T T"
Si      -1.37114072       1.34170957      -1.35483769       0.00000000
Si      -1.34267883      -1.39263211       1.33243114       0.00000000
Si       1.30028410      -1.36389655      -1.41374241       0.00000000
Si       1.35542575       1.37704258       1.35638398       0.00000000
Si       0.08609265      -2.59123403       2.74424799       0.00000000
Si       2.78425425       0.00957852       2.60446963       0.00000000
Si      -0.00990432       2.68894145      -2.70853755       0.00000000
Si      -2.73595440      -0.08941581       2.66976371       0.00000000
Si      -2.71166045       2.69734709       0.02471139       0.00000000
Si      -2.71858925      -0.04000824      -2.70433632       0.00000000
