10
Lattice="16.290000149 0.0 0.0 0.0 16.290000149 0.0 0.0 0.0 29.1751946751" Properties=species:S:1:pos:R:3:initial_magmoms:R:1 pbc="T T T"
Si       1.35268903      -1.36546039       1.34121287       0.00000000
Si      -1.35586558      -1.36840888      -1.33733257       0.00000000
Si       1.37492488       1.33522615      -1.36248159       0.00000000
Si      -1.37914399       1.34473951       1.35568377       0.00000000
Si       2.64492587       0.07379370       2.65403828       0.00000000
Si       0.02783961      -2.72317326      -2.67058062       0.00000000
Si      -2.68616238      -0.00832419      -2.70999631       0.00000000
Si      -2.72013518      -0.06082686       2.68499317       0.00000000
Si      -2.70781016       2.70309746      -0.00989039       0.00000000
Si       0.03064149       2.71977842      -2.70340271       0.00000000
