10
Lattice="16.290000149 0.0 0.0 0.0 16.290000149 0.0 0.0 0.0 29.1751946751" Properties=species:S:1:pos:R:3:initial_magmoms:R:1 pbc="T T T"
Si      -2.19597347       0.72091396       0.46368137       0.00000000
Si      -0.27842868      -2.02748600       1.19910050       0.00000000
Si       1.58128660       1.30535029       1.20732791       0.00000000
Si      -0.28145862       0.88557328      -2.24316402       0.00000000
H        2.23752926      -0.95096134      -1.63483203       0.00000000
H        0.81508645      -1.85973158      -2.20401091       0.00000000
H        1.59062077      -2.55700874      -0.51815146       0.00000000
H        1.03127104      -2.48657078       1.80877454       0.00000000
Si      -2.14356854       2.86559999      -0.51476713       0.00000000
Si      -2.40655430      -0.08241111      -2.92650543       0.00000000
