10
Lattice="16.290000149 0.0 0.0 0.0 16.290000149 0.0 0.0 0.0 29.1751946751" Properties=species:S:1:pos:R:3:initial_magmoms:R:1 pbc="T T T"
Si       1.37026594      -1.34615674      -1.33794525       0.00000000
Si       1.38106621       1.33483519       1.34200060       0.00000000
Si      -1.34846992      -1.36656811       1.35553789       0.00000000
Si      -1.34641738       1.35917245      -1.36819993       0.00000000
Si       0.00457749       2.70316262       2.65079984       0.00000000
Si      -0.01560582      -2.69609276      -2.66223651       0.00000000
Si      -2.71922456      -0.00965997       2.68642275       0.00000000
Si       2.74077624       0.01257588      -2.67501525       0.00000000
Si      -2.69384474       0.00234576      -2.72989379       0.00000000
Si       2.73580779       2.69143382      -0.01420832       0.00000000
