10
Lattice="16.290000149 0.0 0.0 0.0 16.290000149 0.0 0.0 0.0 29.1751946751" Properties=species:S:1:pos:R:3:initial_magmoms:R:1 pbc="T T T"
Si       1.39113343       1.43951473      -1.17106314       0.00000000
Si       1.70162084      -1.59638743       0.01452925       0.00000000
Si      -0.95363290       1.27347076       1.75287487       0.00000000
Si      -1.59101173      -0.81218683      -1.56454899       0.00000000
Si      -2.07221834       1.21570642      -2.62282083       0.00000000
Si      -0.17777277       2.71725347      -2.29696308       0.00000000
Si       0.63329005      -3.35544681      -1.05179494       0.00000000
Si      -2.40673349       2.68938128       0.53682358       0.00000000
Si      -0.29162358      -2.31028040      -2.88638953       0.00000000
Si       2.35903637      -2.01857537       2.14467731       0.00000000
