10
Lattice="16.290000149 0.0 0.0 0.0 16.290000149 0.0 0.0 0.0 29.1751946751" Properties=species:S:1:pos:R:3:initial_magmoms:R:1 pbc="T T T"
Si      -1.39053070      -1.34485354      -1.27493850       0.00000000
Si       1.32977666      -1.40895469       1.31087067       0.00000000
Si      -1.42464196       1.36080145       1.26952942       0.00000000
Si       1.29476179       1.31427721      -1.46926864       0.00000000
Si       2.62600993       2.67426416      -0.09120166       0.00000000
Si       2.66476709      -0.03186324       2.65573045       0.00000000
Si      -0.06880896       2.71015103       2.62460051       0.00000000
Si      -0.13297527      -2.74672209      -2.63875048       0.00000000
Si      -2.74875834      -0.02684592       2.65123747       0.00000000
Si       2.67991679      -2.73544940      -0.09598639       0.00000000
