10
Lattice="16.290000149 0.0 0.0 0.0 16.290000149 0.0 0.0 0.0 29.1751946751" Properties=species:S:1:pos:R:3:initial_magmoms:R:1 pbc="T T T"
Si      -0.83525347       1.24428560      -1.71248473       0.00000000
Si      -1.83246212      -1.02170881       0.94207287       0.00000000
Si       1.03954636       1.85385903       0.95195743       0.00000000
Si       1.74612512      -1.54204399      -0.45187096       0.00000000
H       -1.01314027       2.63192645      -1.10202296       0.00000000
Si      -0.42591834      -2.38542617       2.19592938       0.00000000
Si       1.49820760      -1.02807820      -2.74998383       0.00000000
Si       2.45692298       0.51099939       2.20582269       0.00000000
Si       1.06051159       1.25977250      -3.05031328       0.00000000
Si       0.99634528      -0.92576071       3.42024892       0.00000000
