10
Lattice="16.290000149 0.0 0.0 0.0 16.290000149 0.0 0.0 0.0 29.1751946751" Properties=species:S:1:pos:R:3:initial_magmoms:R:1 pbc="T T T"
Si      -2.23230017       0.50202522      -0.32425311       0.00000000
Si       0.88721857      -1.41672502       1.59585397       0.00000000
Si       0.55814428      -1.03521322      -2.00952906       0.00000000
Si       1.24717870       1.78402217      -0.84062488       0.00000000
H       -0.02884959      -1.48967164       2.80671208       0.00000000
Si       0.61054921       1.10947281      -2.98797756       0.00000000
Si       2.77926951      -0.08301384       1.98534282       0.00000000
Si       3.30243915       1.16982238       0.05260288       0.00000000
Si       1.16017381       1.44721827       3.05948596       0.00000000
Si      -1.06310170      -2.72318303      -2.08112499       0.00000000
