10
Lattice="16.290000149 0.0 0.0 0.0 16.290000149 0.0 0.0 0.0 29.1751946751" Properties=species:S:1:pos:R:3:initial_magmoms:R:1 pbc="T T T"
Si      -1.36123640      -1.34723188       1.35369986       0.00000000
Si      -1.38946859       1.34384356      -1.33362732       0.00000000
Si       1.31784472      -1.36454815      -1.38879762       0.00000000
Si       1.37088496       1.35796699       1.35413749       0.00000000
Si      -0.01379763       2.69606018      -2.67944988       0.00000000
Si       0.00990432      -2.68894145       2.70853755       0.00000000
Si       2.68462460      -2.72148887      -0.06077193       0.00000000
Si       2.68623731      -0.01998783      -2.73062317       0.00000000
Si      -2.70506518      -0.02148651      -2.72490483       0.00000000
Si       0.01878237       2.71581995       2.71556877       0.00000000
