10
Lattice="16.290000149 0.0 0.0 0.0 16.290000149 0.0 0.0 0.0 29.1751946751" Properties=species:S:1:pos:R:3:initial_magmoms:R:1 pbc="T T T"
Si       1.51117444      -1.24985026      -1.29526194       0.00000000
Si      -1.33794658       1.41278284      -1.38509237       0.00000000
Si      -1.38204361      -1.83198971       0.72666657       0.00000000
Si       0.94073122       1.68751370       1.46920445       0.00000000
H        2.96391014       0.06519258       1.66272352       0.00000000
Si      -2.48376890       2.53148231       0.35477037       0.00000000
H        3.18941750       1.61718976      -0.58297874       0.00000000
Si       0.08521299      -2.52415181      -2.71101744       0.00000000
Si       2.52190379       2.85544155       0.12533664       0.00000000
Si      -3.13976721      -0.85698433       1.98461344       0.00000000
