10
Lattice="16.290000149 0.0 0.0 0.0 16.290000149 0.0 0.0 0.0 29.1751946751" Properties=species:S:1:pos:R:3:initial_magmoms:R:1 pbc="T T T"
Si      -1.26152856       1.42759045       1.32793787       0.00000000
Si       1.63499636      -1.18284949       1.21195859       0.00000000
Si       0.67818692       1.76217077      -1.50675293       0.00000000
Si      -1.33227603      -1.97742683      -0.48731328       0.00000000
Si       0.29927500      -2.58945842       2.56457547       0.00000000
Si       0.16167011       0.84944206      -3.60103593       0.00000000
Si      -2.58323401       0.10200798       2.69228696       0.00000000
Si      -0.40018503      -2.79074744      -2.48307164       0.00000000
Si       0.24482567       2.81347851       2.49349011       0.00000000
Si      -2.40443497       2.92674288      -0.05423669       0.00000000
