10
Lattice="16.290000149 0.0 0.0 0.0 16.290000149 0.0 0.0 0.0 29.1751946751" Properties=species:S:1:pos:R:3:initial_magmoms:R:1 pbc="T T T"
Si      -0.84830176      -0.94343536      -0.79385705       0.00000000
H        1.42244281       0.90877024       0.56917887       0.00000000
H        0.77553433      -0.69727717       1.68585945       0.00000000
Si       2.07928820       1.72801064      -0.50688983       0.00000000
Si      -1.09654507       2.74530486      -0.03915311       0.00000000
Si      -0.81508645       1.85973158       2.20401091       0.00000000
Si      -2.14257485       0.35240157      -2.21938623       0.00000000
Si       0.57853936      -2.39019914      -1.91698534       0.00000000
Si      -2.68245803      -1.76257802       0.37169198       0.00000000
Si       1.95364343      -1.24800949       2.47761588       0.00000000
