10
Lattice="16.290000149 0.0 0.0 0.0 16.290000149 0.0 0.0 0.0 29.1751946751" Properties=species:S:1:pos:R:3:initial_magmoms:R:1 pbc="T T T"
H       -0.61374205       1.30389885      -0.43943678       0.00000000
Si      -0.84548359      -1.66615913      -1.39323225       0.00000000
Si       2.30966138       0.08089451      -0.35815469       0.00000000
Si      -0.74992645      -0.59107777       2.15520081       0.00000000
H        1.44765973       1.58004694      -1.89764219       0.00000000
Si       2.36530802      -1.98585039       0.93133056       0.00000000
Si      -2.22509510      -0.21268876      -2.54950356       0.00000000
Si      -2.13562716       2.79078491       0.19836215       0.00000000
Si       1.31848003      -1.31186141       3.00195248       0.00000000
Si       0.53206398       2.50983127      -2.66494981       0.00000000
