10
Lattice="16.290000149 0.0 0.0 0.0 16.290000149 0.0 0.0 0.0 29.1751946751" Properties=species:S:1:pos:R:3:initial_magmoms:R:1 pbc="T T T"
Si       0.15587901      -0.79693939      -1.27460591       0.00000000
H       -1.41475393       2.02908242      -0.43990359       0.00000000
Si       0.91901665      -0.16555527       2.53964235       0.00000000
H       -1.29228571      -2.67654476       0.43217216       0.00000000
Si      -2.05452740      -0.71697178      -2.08057066       0.00000000
Si       1.01701729      -2.87572260      -0.48407483       0.00000000
Si      -0.80045803       1.46401489       2.64397284       0.00000000
Si       2.78866884       0.72992233       1.26349016       0.00000000
Si       0.87109147      -2.45948051       1.87368935       0.00000000
Si       1.25017606       0.36406521      -2.97263141       0.00000000
