10
Lattice="16.290000149 0.0 0.0 0.0 16.290000149 0.0 0.0 0.0 29.1751946751" Properties=species:S:1:pos:R:3:initial_magmoms:R:1 pbc="T T T"
Si       1.37912770       1.34328970      -1.33575711       0.00000000
Si       1.36932112      -1.34778574       1.34138793       0.00000000
Si      -1.35031069       1.37655388       1.34865255       0.00000000
Si      -1.38033316      -1.34363179      -1.35723006       0.00000000
Si      -0.05492988       2.68948554      -2.59729253       0.00000000
Si      -0.00550602      -2.69035868       2.68324265       0.00000000
Si      -2.72725553       0.02130732       2.68073359       0.00000000
Si       2.72396495      -2.70062138      -0.02488644       0.00000000
Si       2.72675054       0.01493793       2.69960994       0.00000000
Si      -0.04481379      -2.78534568      -2.64592758       0.00000000
