10
Lattice="16.290000149 0.0 0.0 0.0 16.290000149 0.0 0.0 0.0 29.1751946751" Properties=species:S:1:pos:R:3:initial_magmoms:R:1 pbc="T T T"
Si       1.34939845       1.28883223      -1.37047559       0.00000000
Si      -1.52634043       1.26345241       1.21724747       0.00000000
Si       1.03058686      -0.82658719       1.95441712       0.00000000
Si      -1.41248962      -1.39466836      -1.29917142       0.00000000
Si      -0.79638553      -2.12398796       2.59282873       0.00000000
Si      -2.44687205      -0.46863072       2.49643388       0.00000000
Si       2.60855030       2.60514569       0.09931236       0.00000000
Si      -0.07405434       2.65135228      -2.67093072       0.00000000
Si      -0.07172487      -2.72311787      -2.70891683       0.00000000
Si       2.71479368      -0.07736121      -2.71743598       0.00000000
