10
Lattice="16.290000149 0.0 0.0 0.0 16.290000149 0.0 0.0 0.0 29.1751946751" Properties=species:S:1:pos:R:3:initial_magmoms:R:1 pbc="T T T"
Si      -1.55110612       1.07279425      -1.37523115       0.00000000
Si       1.38950443      -1.46973268      -1.21876458       0.00000000
Si      -0.88259221      -1.47085669       1.63325657       0.00000000
Si       0.40984011       1.82443115       1.47562300       0.00000000
H        0.31232817      -1.10767114       2.52671773       0.00000000
Si      -1.90456980       2.00098217       2.06437842       0.00000000
Si      -0.26759583       2.57823461      -2.65610972       0.00000000
Si      -3.06685317       2.15513444       0.04049517       0.00000000
Si       2.68933241      -0.10795383      -2.61316384       0.00000000
Si      -0.07633494      -2.84770380      -2.51531023       0.00000000
