10
Lattice="16.290000149 0.0 0.0 0.0 16.290000149 0.0 0.0 0.0 29.1751946751" Properties=species:S:1:pos:R:3:initial_magmoms:R:1 pbc="T T T"
Si       2.24658650      -0.50259537       0.27380920       0.00000000
Si      -1.57402126      -1.68497083      -0.44320038       0.00000000
Si      -0.72979201       0.63760690       2.17757585       0.00000000
Si      -0.07949520       1.45826452      -1.92818862       0.00000000
H        0.26168256      -1.10488718      -2.81552299       0.00000000
Si      -2.82828612      -0.57914209      -2.04623145       0.00000000
Si      -1.30748428       3.31447746      -1.26421954       0.00000000
Si       1.30947166      -2.21707554      -2.84000098       0.00000000
Si       3.17867750      -1.31591599      -1.72194916       0.00000000
H       -0.01246185       3.85602223      -0.33242217       0.00000000
