10
Lattice="16.290000149 0.0 0.0 0.0 16.290000149 0.0 0.0 0.0 29.1751946751" Properties=species:S:1:pos:R:3:initial_magmoms:R:1 pbc="T T T"
Si      -0.71827498      -0.07418466      -1.32604177       0.00000000
H       -2.12180510       0.75437362       0.29035154       0.00000000
H        1.12743091       1.64571356      -1.11784758       0.00000000
H        1.77994316       1.22549671      -1.09188166       0.00000000
Si      -1.52143714       0.84810628       1.69061501       0.00000000
Si       0.25915761      -2.67788054       1.42704630       0.00000000
Si       2.25245090      -2.07832709       0.25665419       0.00000000
Si       0.87886180      -0.86843620      -2.85628073       0.00000000
Si       0.37300842       2.34965333       2.01647276       0.00000000
Si      -1.04023054      -1.17978697       2.74888684       0.00000000
