10
Lattice="16.290000149 0.0 0.0 0.0 16.290000149 0.0 0.0 0.0 29.1751946751" Properties=species:S:1:pos:R:3:initial_magmoms:R:1 pbc="T T T"
Si      -0.96614362       1.45727083       1.50964127       0.00000000
Si       1.56890620      -1.27773874       1.12589994       0.00000000
Si       1.60982668       1.04379805      -1.38763061       0.00000000
Si      -1.89444557      -1.50154705      -0.32585775       0.00000000
H       -0.37300842      -2.34965333      -2.01647276       0.00000000
H        0.75442249      -0.70393978      -3.13432034       0.00000000
H       -2.49481352      -1.59527971      -1.72612122       0.00000000
Si       0.17777277      -2.71725347       2.29696308       0.00000000
Si      -2.65181654       2.38619180       0.19459855       0.00000000
H       -2.11541942       2.64345977      -1.19101897       0.00000000
