10
Lattice="16.290000149 0.0 0.0 0.0 16.290000149 0.0 0.0 0.0 29.1751946751" Properties=species:S:1:pos:R:3:initial_magmoms:R:1 pbc="T T T"
Si      -0.27200716       0.82160245       2.15403380       0.00000000
Si       1.65048653      -1.65535724       0.09639484       0.00000000
Si      -1.77085334      -1.00276354      -1.15574616       0.00000000
Si       0.92053162       1.73208314      -1.27918641       0.00000000
Si      -0.43071901      -2.30685950      -2.57666567       0.00000000
Si      -2.54006714       1.31072599       2.03496983       0.00000000
Si       2.44687205       0.46863072      -2.49643388       0.00000000
Si       3.47745891      -0.35795646      -0.54201677       0.00000000
Si       1.01608876       2.80716450       2.26924664       0.00000000
Si       2.11980143      -2.07712163       2.30796213       0.00000000
