10
Lattice="16.290000149 0.0 0.0 0.0 16.290000149 0.0 0.0 0.0 29.1751946751" Properties=species:S:1:pos:R:3:initial_magmoms:R:1 pbc="T T T"
Si      -0.84167173       1.84609685      -1.12444118       0.00000000
Si       1.71216047      -0.44486361      -1.52743814       0.00000000
Si       1.37764531       1.02881125       1.63220627       0.00000000
Si      -1.39575979      -1.73866430       0.91131638       0.00000000
H        1.11179251      -0.53859627      -2.92770161       0.00000000
H       -2.01005570      -1.17359677      -2.17256005       0.00000000
Si       2.19336707      -2.47275686      -0.46916631       0.00000000
Si       0.32371488      -3.36823446       0.80698588       0.00000000
Si       2.64046241       2.51395427       0.30806088       0.00000000
Si      -2.56575647       2.60426603       0.25026482       0.00000000
