10
Lattice="16.290000149 0.0 0.0 0.0 16.290000149 0.0 0.0 0.0 29.1751946751" Properties=species:S:1:pos:R:3:initial_magmoms:R:1 pbc="T T T"
Si      -1.36088290      -1.36259335       1.34255493       0.00000000
Si       1.35436690       1.35264016       1.36148963       0.00000000
Si       1.36870210      -1.37969785      -1.32224900       0.00000000
Si      -1.38409615       1.33778368      -1.34981956       0.00000000
Si      -0.02046024       2.69936705      -2.67898308       0.00000000
Si       2.71740008      -0.04168611       2.66538744       0.00000000
Si      -0.00472410      -2.70635546      -2.68557667       0.00000000
Si      -2.73551456       0.00125433       2.67577380       0.00000000
Si      -0.00480555      -2.73839790       2.67944988       0.00000000
Si       2.72919404       2.69521310       0.01963491       0.00000000
