10
Lattice="16.290000149 0.0 0.0 0.0 16.290000149 0.0 0.0 0.0 29.1751946751" Properties=species:S:1:pos:R:3:initial_magmoms:R:1 pbc="T T T"
Si       1.29223684       1.43925409       1.31282541       0.00000000
Si      -1.35268903       1.36546039      -1.34121287       0.00000000
Si      -1.30629511      -1.35277863       1.42068610       0.00000000
Si       1.42566823      -1.36172184      -1.29852956       0.00000000
Si       2.53040717       0.04528620       2.68306760       0.00000000
Si      -2.65051334      -2.69952995       0.03334725       0.00000000
Si       0.06403599      -2.70466130      -2.67626978       0.00000000
Si      -2.70855461      -0.00294849      -2.67854545       0.00000000
Si       0.02223585       2.70068654      -2.70369447       0.00000000
Si       2.76128535       0.00149868      -2.66763393       0.00000000
