10
Lattice="16.290000149 0.0 0.0 0.0 16.290000149 0.0 0.0 0.0 29.1751946751" Properties=species:S:1:pos:R:3:initial_magmoms:R:1 pbc="T T T"
Si       0.08195499      -0.69340015      -2.22918326       0.00000000
Si      -0.98868898      -1.78755222       1.15162954       0.00000000
Si       1.83870119       0.88068628       1.18693445       0.00000000
Si      -1.63321912       1.73517824      -0.08417306       0.00000000
H        2.53379549      -0.94736125      -0.73468392       0.00000000
Si      -2.30397617      -0.46447677       2.55220227       0.00000000
Si       0.55170973       2.33005646       2.51447291       0.00000000
Si      -2.12139785      -0.31201866      -3.03316410       0.00000000
Si      -2.07347267       1.98190658      -2.36721111       0.00000000
Si       2.02048130       0.33412419      -3.13060925       0.00000000
