10
Lattice="16.290000149 0.0 0.0 0.0 16.290000149 0.0 0.0 0.0 29.1751946751" Properties=species:S:1:pos:R:3:initial_magmoms:R:1 pbc="T T T"
Si      -1.02970720       1.48915036       1.46739559       0.00000000
Si       0.92199772       1.82783576      -1.17619797       0.00000000
Si      -1.35382933      -1.44783892      -1.28580918       0.00000000
Si       1.50416974      -1.31092147       1.29400741       0.00000000
H       -1.91576918       2.33741954       0.57813566       0.00000000
H        2.77426848      -0.99834895      -1.30048430       0.00000000
Si       2.32055939      -2.28840293      -0.64999416       0.00000000
Si       0.42209019      -2.98387191      -1.90753258       0.00000000
Si       0.87206887       2.78417280       2.09495403       0.00000000
Si       2.48427389       2.60912045       0.41533807       0.00000000
