10
Lattice="16.290000149 0.0 0.0 0.0 16.290000149 0.0 0.0 0.0 29.1751946751" Properties=species:S:1:pos:R:3:initial_magmoms:R:1 pbc="T T T"
Si       0.84167173      -1.84609685       1.12444118       0.00000000
Si      -1.72408475       0.75816919       1.37470600       0.00000000
Si      -1.07087203      -0.08759133      -2.09921361       0.00000000
Si       1.79646122       1.59677839       0.11745933       0.00000000
H        2.33285834       1.85404637      -1.26815819       0.00000000
H       -1.16838397      -3.01969362      -1.04811887       0.00000000
Si       2.55383219      -2.29096046      -0.40299696       0.00000000
H        1.65366308       0.92657521      -2.88846097       0.00000000
Si      -0.36574308       2.10443996       2.71618145       0.00000000
Si      -0.62097481       2.11944305      -2.71548124       0.00000000
