10
Lattice="16.290000149 0.0 0.0 0.0 16.290000149 0.0 0.0 0.0 29.1751946751" Properties=species:S:1:pos:R:3:initial_magmoms:R:1 pbc="T T T"
Si       1.32916627       1.33651306      -1.39422420       0.00000000
Si      -1.19819467       1.47367486       1.42812578       0.00000000
Si       1.47273004      -1.20912526       1.45312892       0.00000000
Si      -1.56975328      -1.12194118      -1.46051025       0.00000000
H        1.82092880      -3.02954907      -0.78282882       0.00000000
Si      -2.52460793       0.09115884       2.80346196       0.00000000
Si      -0.17500347       2.64743453      -2.68823161       0.00000000
Si       2.92596096       2.46343898      -0.05823369       0.00000000
Si      -2.59660973       2.89867521       0.20384709       0.00000000
H        2.03120012       3.20992824       0.92179028       0.00000000
