10
Lattice="16.290000149 0.0 0.0 0.0 16.290000149 0.0 0.0 0.0 29.1751946751" Properties=species:S:1:pos:R:3:initial_magmoms:R:1 pbc="T T T"
Si       1.77085334       1.00276354       1.15574616       0.00000000
Si       1.34013433      -1.30409596      -1.42091951       0.00000000
Si      -1.23127966       1.49040469      -1.36181056       0.00000000
Si      -1.29973024      -1.29876913       1.49738769       0.00000000
Si      -2.29423475       0.46736010       2.76700464       0.00000000
H       -3.16387641      -0.79395832      -1.58266679       0.00000000
Si      -2.50703102       0.02528208      -2.65873549       0.00000000
Si       3.42133986      -0.65259370       1.25214101       0.00000000
Si       2.76332160      -2.52758900      -0.05175680       0.00000000
Si       2.69138495       2.73484668      -0.12344025       0.00000000
