10
Lattice="16.290000149 0.0 0.0 0.0 16.290000149 0.0 0.0 0.0 29.1751946751" Properties=species:S:1:pos:R:3:initial_magmoms:R:1 pbc="T T T"
Si       1.37446876       1.38228796       1.30801150       0.00000000
Si       1.37244880      -1.33988509      -1.36411540       0.00000000
Si      -1.32261769       1.36534636      -1.39186101       0.00000000
Si      -1.36399429      -1.35764119       1.38176639       0.00000000
Si       2.67667508      -0.02158425       2.66098198       0.00000000
Si      -2.67100616      -2.67147857      -0.06508986       0.00000000
Si      -2.68183901       2.71702541      -0.03830703       0.00000000
Si       2.70288569      -2.71420724       0.00175051       0.00000000
Si      -2.68596038       0.03756474       2.74734056       0.00000000
Si      -2.68249061       0.02166570      -2.75408003       0.00000000
