10
Lattice="16.290000149 0.0 0.0 0.0 16.290000149 0.0 0.0 0.0 29.1751946751" Properties=species:S:1:pos:R:3:initial_magmoms:R:1 pbc="T T T"
Si       0.69209695      -2.04772795      -0.76698669       0.00000000
Si      -0.61413301      -0.51220647       2.18239209       0.00000000
Si      -1.81959302       0.88883128      -1.14772298       0.00000000
Si       1.76344139       1.48515931      -0.33315155       0.00000000
H        1.37629324       0.24858540      -2.92201245       0.00000000
Si       0.15649803       1.53437140       3.06088637       0.00000000
Si      -2.84302857      -1.26298000      -1.54010018       0.00000000
Si       2.14979132       2.13392486       1.89049426       0.00000000
Si      -0.69924826       2.32842746      -2.69949324       0.00000000
Si       0.77620222       3.34381575      -1.22244066       0.00000000
