10
Lattice="16.290000149 0.0 0.0 0.0 16.290000149 0.0 0.0 0.0 29.1751946751" Properties=species:S:1:pos:R:3:initial_magmoms:R:1 pbc="T T T"
Si      -0.08195499       0.69340015       2.22918326       0.00000000
Si       0.72941734      -2.18997386      -0.40209253       0.00000000
Si       1.93852631       1.02752434      -0.90142599       0.00000000
Si      -2.20335284       0.38138148      -0.80398084       0.00000000
H        2.45184050      -0.25396110       1.49449935       0.00000000
Si       2.62972730      -1.64160196       0.88403757       0.00000000
Si      -2.15542766       2.67530672      -0.13802785       0.00000000
Si       1.46220670      -1.84621251      -2.66378280       0.00000000
Si       1.01361268       2.07269075      -2.73602058       0.00000000
Si       0.24298164       0.02611287      -3.61451487       0.00000000
