10
Lattice="16.290000149 0.0 0.0 0.0 16.290000149 0.0 0.0 0.0 29.1751946751" Properties=species:S:1:pos:R:3:initial_magmoms:R:1 pbc="T T T"
Si       1.29878542       1.48507786      -1.27297589       0.00000000
Si       1.37407780      -1.35078310       1.36111036       0.00000000
Si      -1.38370519       1.37173204       1.35068606       0.00000000
Si      -1.17297775      -1.46798965      -1.45003343       0.00000000
Si       2.60516198       0.05779692      -2.57184884       0.00000000
Si      -2.52923429      -0.05997978      -2.76329647       0.00000000
Si      -2.66013911      -2.66738978      -0.01501939       0.00000000
Si       0.01874979      -2.66574449       2.75971376       0.00000000
Si       2.71810055       0.01865205       2.72379909       0.00000000
Si      -0.02085120       2.73932643       2.71341272       0.00000000
