10
Lattice="16.290000149 0.0 0.0 0.0 16.290000149 0.0 0.0 0.0 29.1751946751" Properties=species:S:1:pos:R:3:initial_magmoms:R:1 pbc="T T T"
Si      -1.37075464       1.35690814       1.33088486       0.00000000
Si      -1.37404522      -1.34649883      -1.34267163       0.00000000
Si       1.34846992       1.36656811      -1.35553789       0.00000000
Si       1.36829485      -1.34227972       1.36694540       0.00000000
Si       0.00605988       2.71212212       2.65281293       0.00000000
Si      -0.01467729      -2.70413840      -2.68105451       0.00000000
Si       2.71757927      -2.69273214      -0.00589339       0.00000000
Si       2.71873586       0.02041137      -2.69348315       0.00000000
Si      -2.70508484       0.02415807      -2.71340981       0.00000000
Si      -2.71783991      -2.70149127       0.02278583       0.00000000
