10
Lattice="16.290000149 0.0 0.0 0.0 16.290000149 0.0 0.0 0.0 29.1751946751" Properties=species:S:1:pos:R:3:initial_magmoms:R:1 pbc="T T T"
H        1.08621721      -1.70771330      -0.78304501       0.00000000
Si      -0.24791751       0.51396579      -2.29811287       0.00000000
Si       1.94214269       0.85182040       1.06151583       0.00000000
Si      -1.74612512       1.54204399       0.45187096       0.00000000
Si      -0.83380366      -1.99744724       1.09142040       0.00000000
Si       0.71079787       2.05304338       2.65769364       0.00000000
Si      -2.17204346      -0.84338218       2.64780034       0.00000000
Si       1.98097805      -2.45420255      -1.76306898       0.00000000
Si      -2.14969358      -0.78105664      -2.92567131       0.00000000
Si      -0.70657876       3.39590303       1.40382839       0.00000000
