10
Lattice="16.290000149 0.0 0.0 0.0 16.290000149 0.0 0.0 0.0 29.1751946751" Properties=species:S:1:pos:R:3:initial_magmoms:R:1 pbc="T T T"
Si      -1.40231798       1.17235873      -1.45873056       0.00000000
Si      -1.45972394      -1.17830458       1.41633608       0.00000000
Si       1.45970472      -1.28093158      -1.34456802       0.00000000
Si       1.21981818       1.49040469       1.39740138       0.00000000
H       -2.29707882       1.91884799      -0.47870659       0.00000000
Si       2.65069921       0.41229990      -2.53506184       0.00000000
Si      -0.07152271      -2.53881281       2.77198776       0.00000000
Si      -2.85554890      -2.50020551       0.05263205       0.00000000
Si       2.60523382       0.15078024       2.76941451       0.00000000
Si      -0.25007740       2.80820055      -2.64441047       0.00000000
