10
Lattice="16.290000149 0.0 0.0 0.0 16.290000149 0.0 0.0 0.0 29.1751946751" Properties=species:S:1:pos:R:3:initial_magmoms:R:1 pbc="T T T"
Si      -1.37513665       1.35821134       1.31941900       0.00000000
Si      -1.37463166      -1.36337527      -1.33120578       0.00000000
Si       1.35278677       1.37630953      -1.34258411       0.00000000
Si       1.35931906      -1.32558247       1.39081071       0.00000000
Si      -0.01658322       2.66468564       2.70880012       0.00000000
Si       2.68167611      -2.69811272       0.01511275       0.00000000
Si      -0.01541034      -2.71505432      -2.68475976       0.00000000
Si       2.70006752       0.02816541      -2.70850837       0.00000000
Si      -2.71388144       0.02777445       2.69736345       0.00000000
Si      -2.73010628       2.69524568      -0.05651235       0.00000000
