10
Lattice="16.290000149 0.0 0.0 0.0 16.290000149 0.0 0.0 0.0 29.1751946751" Properties=species:S:1:pos:R:3:initial_magmoms:R:1 pbc="T T T"
Si       1.34621213       1.34926813      -1.36697457       0.00000000
Si       1.35090365      -1.35762490       1.36099366       0.00000000
Si      -1.33146956       1.34817670       1.38958535       0.00000000
Si      -1.36516066      -1.32913369      -1.37785692       0.00000000
Si       2.67739836       2.69464295       0.04723464       0.00000000
Si      -2.70532268      -2.68138289       0.00863586       0.00000000
Si      -2.69976779       2.70730028       0.05149422       0.00000000
Si       2.69144034       0.00511506       2.72569256       0.00000000
Si       2.69785860      -0.02006928      -2.72507988       0.00000000
Si      -0.01050379      -2.71726976      -2.70716631       0.00000000
