10
Lattice="16.290000149 0.0 0.0 0.0 16.290000149 0.0 0.0 0.0 29.1751946751" Properties=species:S:1:pos:R:3:initial_magmoms:R:1 pbc="T T T"
Si      -1.38751705      -1.27496944      -1.37764919       0.00000000
Si       1.20317941      -1.39688380       1.44124586       0.00000000
Si      -1.41867982       1.38204361       1.28411118       0.00000000
Si       1.87393646       0.80277121      -1.19512947       0.00000000
Si       2.51846660      -2.71995924       0.04067314       0.00000000
Si       2.63168210       0.00669519       2.68389618       0.00000000
Si       2.68281641       2.66162312      -0.01271163       0.00000000
Si       3.50715558      -0.93240703      -1.11095640       0.00000000
Si      -0.09879885       2.72300384       2.67861547       0.00000000
Si      -2.72323842      -2.68157837      -0.02503232       0.00000000
