10
Lattice="16.290000149 0.0 0.0 0.0 16.290000149 0.0 0.0 0.0 29.1751946751" Properties=species:S:1:pos:R:3:initial_magmoms:R:1 pbc="T T T"
Si       0.52223134      -0.67756627       2.22720519       0.00000000
Si       1.16270691       2.05426676      -0.60360560       0.00000000
Si      -2.00951813       1.37912770       0.07789777       0.00000000
Si      -1.25623594      -1.59332491      -1.35367068       0.00000000
Si       2.18468450      -1.41757210      -1.03472745       0.00000000
H       -1.04645332       1.11894382      -2.39327039       0.00000000
H       -2.68943015      -1.28337508      -0.90335155       0.00000000
H       -1.55580904       2.66918168      -0.57259237       0.00000000
Si       0.00042354       2.20841903      -2.62748886       0.00000000
H        3.37960488      -1.05438655      -0.14126629       0.00000000
