10
Lattice="16.290000149 0.0 0.0 0.0 16.290000149 0.0 0.0 0.0 29.1751946751" Properties=species:S:1:pos:R:3:initial_magmoms:R:1 pbc="T T T"
Si      -1.39398418       1.35042472       1.31556788       0.00000000
Si       1.33907059       1.34403904      -1.37788609       0.00000000
Si      -1.39900150      -1.37321443      -1.31425499       0.00000000
Si       1.35892810      -1.29989314       1.43188938       0.00000000
Si       2.58318677      -2.74027287       0.01099905       0.00000000
Si       2.68540652       2.67400352       0.02724963       0.00000000
Si      -2.89813764      -0.01413972       2.47067219       0.00000000
Si      -0.06423147       2.63704151       2.75781445       0.00000000
Si       2.66142764      -0.02849121      -2.75358405       0.00000000
Si      -2.73412992       2.69739596      -0.07133335       0.00000000
