10
Lattice="16.290000149 0.0 0.0 0.0 16.290000149 0.0 0.0 0.0 29.1751946751" Properties=species:S:1:pos:R:3:initial_magmoms:R:1 pbc="T T T"
H       -1.43319421       0.30994983       0.45031913       0.00000000
Si       0.47631960      -2.14583285       0.82904233       0.00000000
Si      -0.46390662       0.23697063      -2.31548933       0.00000000
Si       1.25623594       1.59332491       1.35367068       0.00000000
H        0.20978262       2.71226873      -1.03959971       0.00000000
H        1.55927230      -1.38535048      -2.12197026       0.00000000
H        0.39324060      -3.19880217      -0.25715017       0.00000000
Si      -0.75328219       2.97245262       1.43156845       0.00000000
Si       3.44092044       0.17575281       0.31894323       0.00000000
Si      -2.65175138       2.27698364       0.17403004       0.00000000
