10
Lattice="16.290000149 0.0 0.0 0.0 16.290000149 0.0 0.0 0.0 29.1751946751" Properties=species:S:1:pos:R:3:initial_magmoms:R:1 pbc="T T T"
Si       1.80902081       1.32592619       0.60696075       0.00000000
Si      -0.73278937      -0.34376136       2.26169027       0.00000000
Si      -1.21922506       1.87232538      -0.95073207       0.00000000
Si       1.61909569      -1.53023212      -1.07414314       0.00000000
H        0.71314363      -2.51450650       0.99350290       0.00000000
H       -1.18902340      -2.93688992      -0.25277389       0.00000000
Si      -0.27295524      -2.86394330      -1.46363199       0.00000000
Si       0.47631960       2.87373685       1.76235681       0.00000000
Si      -1.46220670       1.84621251       2.66378280       0.00000000
Si      -1.16017381      -1.44721827      -3.05948596       0.00000000
