10
Lattice="16.290000149 0.0 0.0 0.0 16.290000149 0.0 0.0 0.0 29.1751946751" Properties=species:S:1:pos:R:3:initial_magmoms:R:1 pbc="T T T"
Si       0.44989722       2.20703438      -0.61626764       0.00000000
Si       1.07087203       0.08759133       2.09921361       0.00000000
Si      -0.40984011      -1.82443115      -1.47562300       0.00000000
Si      -2.31440992       0.17655102       0.58875543       0.00000000
H        2.72453510       1.01416654      -0.78924737       0.00000000
H       -0.09751194      -2.93210229       1.05109474       0.00000000
H        1.80559991       2.78697468      -0.34111638       0.00000000
Si      -1.96094623      -0.75163690      -2.85085415       0.00000000
Si      -1.29243232      -3.29528784       0.15763358       0.00000000
Si      -2.08943198       2.03043449       2.02604222       0.00000000
