10
Lattice="16.290000149 0.0 0.0 0.0 16.290000149 0.0 0.0 0.0 29.1751946751" Properties=species:S:1:pos:R:3:initial_magmoms:R:1 pbc="T T T"
Si      -1.33669225      -1.44858826       1.25514605       0.00000000
Si       1.34332228      -1.36464589      -1.35259120       0.00000000
Si      -1.38745189       1.34231230      -1.34731049       0.00000000
Si       1.25682238       1.36676359       1.45753438       0.00000000
Si      -2.69822675      -0.07755669       2.51647724       0.00000000
Si       2.63401157       2.68472234       0.05712503       0.00000000
Si      -0.02865411       2.70495452      -2.69144088       0.00000000
Si       2.69072044      -0.01436778      -2.71352651       0.00000000
Si       2.68710068      -2.72183096       0.01557955       0.00000000
Si      -0.02709027      -2.71269227      -2.70812910       0.00000000
