10
Lattice="16.290000149 0.0 0.0 0.0 16.290000149 0.0 0.0 0.0 29.1751946751" Properties=species:S:1:pos:R:3:initial_magmoms:R:1 pbc="T T T"
Si      -1.53924211      -1.31434237      -1.19028959       0.00000000
Si      -1.40875921       1.18159516       1.46905858       0.00000000
Si       1.38828268      -1.31408173       1.43075155       0.00000000
Si       0.78638347       1.49739962      -1.70779920       0.00000000
H        1.17739234      -2.08616258      -2.24068413       0.00000000
Si      -1.28202301       2.21818326      -2.55455087       0.00000000
Si      -0.17831034      -2.66610287      -2.51583539       0.00000000
Si      -2.57011894       0.23262120      -2.66976371       0.00000000
Si       0.03761361       2.62237074       2.74512324       0.00000000
H       -0.60325129       3.77913342       0.02360273       0.00000000
