10
Lattice="16.290000149 0.0 0.0 0.0 16.290000149 0.0 0.0 0.0 29.1751946751" Properties=species:S:1:pos:R:3:initial_magmoms:R:1 pbc="T T T"
Si       1.35097858       1.38528532       1.32411621       0.00000000
Si      -1.34042103       1.35936793      -1.36146046       0.00000000
Si       1.38803833      -1.35128809      -1.33307300       0.00000000
Si      -1.35041332      -1.36796905       1.36043933       0.00000000
Si       2.67625154      -0.04398300       2.60499478       0.00000000
Si      -2.66789477       2.70917363       0.03352230       0.00000000
Si       0.03899826      -2.71311581      -2.68260080       0.00000000
Si      -2.69260670       0.00625536      -2.72227906       0.00000000
Si      -2.69477327      -2.72875421       0.00930689       0.00000000
Si       0.01809819       2.71083521      -2.72417545       0.00000000
