10
Lattice="16.290000149 0.0 0.0 0.0 16.290000149 0.0 0.0 0.0 29.1751946751" Properties=species:S:1:pos:R:3:initial_magmoms:R:1 pbc="T T T"
Si       1.32117929      -1.33525873      -1.40487315       0.00000000
Si       1.37960826       1.38926008       1.30497728       0.00000000
Si      -1.34094394       1.36899532      -1.37012549       0.00000000
Si      -1.35382933      -1.34257294       1.39684997       0.00000000
Si      -0.01366731       2.69247638       2.64230986       0.00000000
Si       2.64984545      -2.69361668      -0.03929899       0.00000000
Si      -2.70016526      -2.67253742      -0.00828576       0.00000000
Si      -2.72359028       2.71085150      -0.03118828       0.00000000
Si       2.67159260       0.03271032      -2.76531248       0.00000000
Si       0.03193101      -2.74590759       2.69645902       0.00000000
