10
Lattice="16.290000149 0.0 0.0 0.0 16.290000149 0.0 0.0 0.0 29.1751946751" Properties=species:S:1:pos:R:3:initial_magmoms:R:1 pbc="T T T"
Si      -1.28008450      -0.03984534      -0.82209864       0.00000000
Si       2.30930300      -0.19917783      -0.91624699       0.00000000
Si       2.16337718       0.21706425       1.44151719       0.00000000
Si       1.44816472       1.87960538      -1.70677806       0.00000000
H        1.29228571       2.67654476      -0.43217216       0.00000000
Si       0.64086490      -1.15676268       2.72152051       0.00000000
Si      -2.64507900      -1.42137745       0.51295827       0.00000000
Si      -0.80550793      -2.59753826       1.44545585       0.00000000
Si      -0.67877173      -1.56095017      -2.57815360       0.00000000
Si      -2.08322386       2.21881205      -0.60500601       0.00000000
