10
Lattice="16.290000149 0.0 0.0 0.0 16.290000149 0.0 0.0 0.0 29.1751946751" Properties=species:S:1:pos:R:3:initial_magmoms:R:1 pbc="T T T"
Si      -1.34646625       1.36041212      -1.35480852       0.00000000
Si       1.35824392       1.36157686       1.34987791       0.00000000
Si      -1.37567096      -1.35221662       1.34582256       0.00000000
Si       1.31760037      -1.37108044      -1.38780566       0.00000000
Si       0.01379763      -2.69606018       2.67944988       0.00000000
Si      -2.66088861      -0.02378340      -2.71761103       0.00000000
Si       2.70475904      -0.01181025      -2.69173264       0.00000000
Si      -0.02546127       2.71634123       2.68312595       0.00000000
Si      -2.69126755      -2.71754669      -0.04545495       0.00000000
Si       2.70003494      -2.71604801      -0.05117329       0.00000000
