10
Lattice="16.28999089631971 0.0 0.0 0.0 16.28999089631971 0.0 0.0 0.0 34.397273925272025" Properties=species:S:1:pos:R:3:initial_magmoms:R:1 pbc="T T T"
Si       0.19928209       2.27126583       0.42360267       0.00000000
Si       2.09433199      -0.88034418       0.47936068       0.00000000
Si      -1.56501192      -0.86998374       1.48613505       0.00000000
Si      -0.86774224      -0.82582155      -1.99569655       0.00000000
Si      -2.13468951       2.83491612       0.18340637       0.00000000
Si       1.11421157       2.10543363       2.65461110       0.00000000
Si       1.52004433      -2.94596505       1.38658928       0.00000000
Si       1.83626581       2.85790131      -1.25667071       0.00000000
Si      -3.12849354      -0.21294288      -1.83034876       0.00000000
Si       2.74870129       0.41993991       2.33843118       0.00000000
