10
Lattice="16.28999089631971 0.0 0.0 0.0 16.28999089631971 0.0 0.0 0.0 34.397273925272025" Properties=species:S:1:pos:R:3:initial_magmoms:R:1 pbc="T T T"
Si       1.35327546      -1.35273112      -1.35969060       0.00000000
Si      -1.36099692       1.36248350      -1.36020656       0.00000000
Si       1.35365013       1.37175576       1.36956262       0.00000000
Si      -1.35581670      -1.35887245       1.39491343       0.00000000
Si       2.71059084      -2.71154518       0.00065355       0.00000000
Si      -0.00363267      -2.71063294      -2.71621665       0.00000000
Si       2.70480789       2.72261053      -0.00137589       0.00000000
Si      -2.71441899      -2.71379320       0.00264859       0.00000000
Si       2.71178001       0.00417883      -2.71666382       0.00000000
Si      -2.71735119       0.00340915      -2.71693899       0.00000000
