10
Lattice="16.28999089631971 0.0 0.0 0.0 16.28999089631971 0.0 0.0 0.0 34.397273925272025" Properties=species:S:1:pos:R:3:initial_magmoms:R:1 pbc="T T T"
Si      -1.37894850      -0.92501625      -1.63851506       0.00000000
Si       0.56068551       2.17134297      -0.77507421       0.00000000
Si      -1.22359077       0.31640067       2.03931232       0.00000000
Si       2.01030003      -1.35261409      -0.16142650       0.00000000
Si      -0.78029100      -3.19475312      -1.17824488       0.00000000
Si       0.76137831       3.27433887       1.20703541       0.00000000
Si      -1.32113529       2.70166392       1.98940185       0.00000000
Si      -0.99287550       0.72593127      -3.47082447       0.00000000
Si       3.08806272      -0.21753666      -2.00790759       0.00000000
Si      -0.05053158      -0.94803728       3.60002070       0.00000000
