10
Lattice="16.28999089631971 0.0 0.0 0.0 16.28999089631971 0.0 0.0 0.0 34.397273925272025" Properties=species:S:1:pos:R:3:initial_magmoms:R:1 pbc="T T T"
Si       1.35073422      -1.35449721       1.35920904       0.00000000
Si       1.35725022       1.35669636      -1.35666364       0.00000000
Si      -1.35692442      -1.35808101      -1.35652605       0.00000000
Si      -1.35852084       1.35731538       1.35762676       0.00000000
Si       0.00241092       2.70619254       2.71845247       0.00000000
Si       0.00034209       2.71450044      -2.71353366       0.00000000
Si      -2.71521720      -0.00014661      -2.71377444       0.00000000
Si       2.71511946      -0.00092853      -2.71387763       0.00000000
Si       0.00055386      -2.71541920      -2.71374005       0.00000000
Si      -2.71507059      -2.71462424       0.00037837       0.00000000
