10
Lattice="16.28999089631971 0.0 0.0 0.0 16.28999089631971 0.0 0.0 0.0 34.397273925272025" Properties=species:S:1:pos:R:3:initial_magmoms:R:1 pbc="T T T"
Si       0.60303951      -0.16734717      -2.28229480       0.00000000
Si       0.24669576      -2.33691453       0.45614250       0.00000000
Si      -2.27458899       0.58474584       0.61512679       0.00000000
Si       1.52651961       1.13845923       1.50598229       0.00000000
Si      -1.58265495      -2.60480358       1.96793794       0.00000000
Si       2.88534996      -0.61861275      -2.18233626       0.00000000
Si      -2.27952486      -0.49169736       2.89790315       0.00000000
Si      -0.73293597      -2.02108401      -3.03848489       0.00000000
Si      -3.68227305      -1.04544333      -0.30517278       0.00000000
Si       0.98189604       3.38338413       1.73888636       0.00000000
