10
Lattice="16.28999089631971 0.0 0.0 0.0 16.28999089631971 0.0 0.0 0.0 34.397273925272025" Properties=species:S:1:pos:R:3:initial_magmoms:R:1 pbc="T T T"
Si       0.69686991      -2.11310622      -0.92996522       0.00000000
Si      -2.20020885      -0.93706596       0.55936878       0.00000000
Si       0.00493587       1.07644320      -2.28277636       0.00000000
Si       0.39610764       1.32390459       2.28377388       0.00000000
Si      -1.40274819      -0.55374597      -3.20307594       0.00000000
Si      -1.26591219      -2.69824302      -2.15729503       0.00000000
Si       2.27952486       0.49169736      -2.89790315       0.00000000
Si      -2.33346105      -1.19694033       2.89074340       0.00000000
Si      -0.44642745      -0.28036719       3.90130113       0.00000000
Si       2.52622062      -1.84521717      -2.44176065       0.00000000
