10
Lattice="16.28999089631971 0.0 0.0 0.0 16.28999089631971 0.0 0.0 0.0 34.397273925272025" Properties=species:S:1:pos:R:3:initial_magmoms:R:1 pbc="T T T"
Si      -1.35791811      -1.35581670       1.35449661       0.00000000
Si       1.35772263      -1.35645201      -1.35638846       0.00000000
Si      -1.35742941       1.35853713      -1.35680123       0.00000000
Si       1.35904212       1.35651717       1.35920904       0.00000000
Si      -2.70681156      -0.00711873       2.71294891       0.00000000
Si      -2.71235016       0.00203625      -2.71442799       0.00000000
Si       2.71451673       0.00149868      -2.71332728       0.00000000
Si      -0.00083079      -2.71319724      -2.71470317       0.00000000
Si      -2.71412577      -2.71393029       0.00010319       0.00000000
Si      -0.00114030      -2.71363707       2.71477196       0.00000000
