10
Lattice="16.28999089631971 0.0 0.0 0.0 16.28999089631971 0.0 0.0 0.0 34.397273925272025" Properties=species:S:1:pos:R:3:initial_magmoms:R:1 pbc="T T T"
Si       1.17305919      -1.26443795       1.56070838       0.00000000
Si      -2.22092273      -0.83504169      -0.02947848       0.00000000
Si      -0.09754452       2.38526325      -0.04991047       0.00000000
Si       1.22359077      -0.31640067      -2.03931232       0.00000000
Si      -2.93684984       0.73366902      -1.65027893       0.00000000
Si       1.98496908       2.95793820      -0.83227691       0.00000000
Si       3.36632850      -0.44797500       1.43742848       0.00000000
Si       3.13343037       1.82470806       0.86141141       0.00000000
Si      -2.02090482       2.88963423      -1.23541318       0.00000000
Si       0.78672555      -3.51749060       1.07195724       0.00000000
