10
Lattice="16.28999089631971 0.0 0.0 0.0 16.28999089631971 0.0 0.0 0.0 34.397273925272025" Properties=species:S:1:pos:R:3:initial_magmoms:R:1 pbc="T T T"
Si      -0.64555641       1.11492018       1.90368379       0.00000000
Si       0.17501976       1.08339903      -2.03009384       0.00000000
Si       0.54462357      -2.24492490      -0.23290407       0.00000000
Si       1.25651286       2.47715514       0.83244889       0.00000000
Si       1.49594328      -1.64190168       2.10638704       0.00000000
Si       3.26910978       1.27316124       0.41125404       0.00000000
Si       0.62569890       3.30608808      -1.23950646       0.00000000
Si       0.40913964      -0.17777277       3.68057916       0.00000000
Si       2.79674865      -2.34460341      -0.88734697       0.00000000
Si      -2.33567649       2.79055845       1.22100071       0.00000000
