10
Lattice="16.28999089631971 0.0 0.0 0.0 16.28999089631971 0.0 0.0 0.0 34.397273925272025" Properties=species:S:1:pos:R:3:initial_magmoms:R:1 pbc="T T T"
Si       1.55747061       1.11979089       1.31838849       0.00000000
Si      -1.22049567      -1.59889608       1.25799373       0.00000000
Si       1.70927712      -1.30328145      -1.38798507       0.00000000
Si      -2.01227112       1.95424614      -0.19095926       0.00000000
Si       0.21049938       2.44545480       2.71286852       0.00000000
Si      -2.52330471      -0.26818227       2.70664949       0.00000000
Si       2.81561247       2.53507979      -0.06582191       0.00000000
Si      -2.78850591      -2.78488953      -0.14321582       0.00000000
Si       2.91807657      -0.25350498       2.70911233       0.00000000
Si       0.19974798      -2.98398591       2.69217167       0.00000000
