10
Lattice="16.28999089631971 0.0 0.0 0.0 16.28999089631971 0.0 0.0 0.0 34.397273925272025" Properties=species:S:1:pos:R:3:initial_magmoms:R:1 pbc="T T T"
Si      -1.34304534      -1.35930276       1.36681084       0.00000000
Si       1.30280904      -1.33071381      -1.44865576       0.00000000
Si       1.36756179       1.35925389       1.36687964       0.00000000
Si      -1.27834146       1.37138994      -1.48013960       0.00000000
Si       0.51103359       2.22242841      -2.89760875       0.00000000
Si       2.52330471       0.26818227      -2.70664949       0.00000000
Si      -0.26520120      -2.51670726      -2.84986531       0.00000000
Si      -2.69856882      -2.72148885      -0.01548566       0.00000000
Si      -2.70032814       2.72218932      -0.02199019       0.00000000
Si      -2.70632286       0.00006516       2.72498796       0.00000000
