10
Lattice="16.28999089631971 0.0 0.0 0.0 16.28999089631971 0.0 0.0 0.0 34.397273925272025" Properties=species:S:1:pos:R:3:initial_magmoms:R:1 pbc="T T T"
Si       1.35690813       1.35790182       1.35652605       0.00000000
Si      -1.35746199      -1.35759231       1.35687002       0.00000000
Si      -1.35695700       1.35694071      -1.35834911       0.00000000
Si       1.35803214      -1.35791811      -1.35831471       0.00000000
Si       0.00363267       2.71063294       2.71621665       0.00000000
Si      -0.00346977      -2.70842427       2.71872765       0.00000000
Si      -2.71371852       2.71404208      -0.00072234       0.00000000
Si      -2.71078632      -0.00316026       2.71886524       0.00000000
Si       0.00127062      -2.71479366      -2.71487516       0.00000000
Si      -2.71487511      -2.71508688      -0.00092873       0.00000000
