10
Lattice="16.28999089631971 0.0 0.0 0.0 16.28999089631971 0.0 0.0 0.0 34.397273925272025" Properties=species:S:1:pos:R:3:initial_magmoms:R:1 pbc="T T T"
Si      -0.58238379       0.40843917       2.16634152       0.00000000
Si      -0.71889399      -2.22423660      -0.71821548       0.00000000
Si       1.14621327       0.60419610      -2.09149301       0.00000000
Si       2.43374229      -0.30964032      -0.29843092       0.00000000
Si       0.13993110       2.42770589      -0.68137598       0.00000000
Si      -0.15819219      -1.19474118      -3.00312447       0.00000000
Si       0.36116559      -1.79859519       2.70620704       0.00000000
Si       0.95443110      -3.28359159       0.78339835       0.00000000
Si      -2.91577968       0.70069806       2.19306822       0.00000000
Si       3.01788540      -2.55599874      -0.16170168       0.00000000
