10
Lattice="16.28999089631971 0.0 0.0 0.0 16.28999089631971 0.0 0.0 0.0 34.397273925272025" Properties=species:S:1:pos:R:3:initial_magmoms:R:1 pbc="T T T"
Si       0.58414311      -2.24635842       0.13672924       0.00000000
Si       1.40993208       1.30732137       1.36017216       0.00000000
Si      -1.28752902       0.91383642      -1.79306210       0.00000000
Si      -2.43374229       0.30964032       0.29843092       0.00000000
Si      -1.47931119      -2.97395127       1.08182927       0.00000000
Si       1.68464664      -0.25396110       3.12781466       0.00000000
Si       0.32798286       2.17661183      -2.82694154       0.00000000
Si      -2.29381119       2.73734621      -0.38294506       0.00000000
Si       2.10854502      -2.27778183       1.89611639       0.00000000
Si      -3.15263628      -1.91459628      -0.41978457       0.00000000
