10
Lattice="16.28999089631971 0.0 0.0 0.0 16.28999089631971 0.0 0.0 0.0 34.397273925272025" Properties=species:S:1:pos:R:3:initial_magmoms:R:1 pbc="T T T"
Si       0.18342540      -2.37672729       0.18402552       0.00000000
Si       2.11913352       0.76040091       0.85291528       0.00000000
Si      -0.54659466       0.96006744      -2.22973573       0.00000000
Si      -0.40369878       1.52771613       1.96343189       0.00000000
Si      -1.48230855      -3.13136154      -1.30974573       0.00000000
Si       0.91155582       2.73141176      -2.70404001       0.00000000
Si      -0.96102855       3.73088960       0.93539999       0.00000000
Si      -2.76558588       1.77443127      -2.23988294       0.00000000
Si       2.22922134      -3.26482551      -0.53315804       0.00000000
Si      -0.54398826      -0.63975717      -3.92989074       0.00000000
