10
Lattice="16.28999089631971 0.0 0.0 0.0 16.28999089631971 0.0 0.0 0.0 34.397273925272025" Properties=species:S:1:pos:R:3:initial_magmoms:R:1 pbc="T T T"
Si      -2.17438920       0.90334566      -0.08623401       0.00000000
Si       0.98179830       1.51093008      -1.55097395       0.00000000
Si      -0.36808884      -2.33069175      -0.43959741       0.00000000
Si       1.52249598      -0.11591964       1.88638195       0.00000000
Si      -2.17699560       2.50317027       1.61392099       0.00000000
Si       3.06006021      -1.72846674       1.14594582       0.00000000
Si       3.03994206       0.40210236      -2.16661670       0.00000000
Si       0.59882040      -1.72172268       3.31049868       0.00000000
Si       1.87214454      -3.28349385      -0.26785172       0.00000000
Si      -2.72143998       1.06067448      -2.44640428       0.00000000
