10
Lattice="16.28999089631971 0.0 0.0 0.0 16.28999089631971 0.0 0.0 0.0 34.397273925272025" Properties=species:S:1:pos:R:3:initial_magmoms:R:1 pbc="T T T"
Si      -0.02186118       0.63991113      -2.27875188       0.00000000
Si       0.89164944       1.73524079       1.40088277       0.00000000
Si      -1.78937505      -0.85103847       1.41746915       0.00000000
Si       2.01227112      -1.95424614       0.19095926       0.00000000
Si      -0.51103359      -2.22242841       2.89760875       0.00000000
Si       2.22277050       0.49120866       2.90382778       0.00000000
Si      -3.23775153      -1.96920036      -0.09318227       0.00000000
Si       2.22780411       3.16790720       0.07753150       0.00000000
Si       0.79177545      -3.55314222       1.44895299       0.00000000
Si       3.56974173      -0.83445525       1.50934776       0.00000000
