10
Lattice="16.28999089631971 0.0 0.0 0.0 16.28999089631971 0.0 0.0 0.0 34.397273925272025" Properties=species:S:1:pos:R:3:initial_magmoms:R:1 pbc="T T T"
Si      -1.61551188      -1.26277541       1.03387944       0.00000000
Si      -1.61969841       1.01518628      -1.42569901       0.00000000
Si       1.09509525      -1.68585929      -1.42088339       0.00000000
Si       0.58246524       1.91365146       1.63614165       0.00000000
Si       2.38684338       2.36424915       0.05049523       0.00000000
Si      -0.32798286      -2.17661183       2.82694154       0.00000000
Si      -2.62179405       0.56073438       2.44399647       0.00000000
Si      -0.26854065       2.36604105      -2.79663752       0.00000000
Si       2.45576637      -0.35544102      -2.79821980       0.00000000
Si      -2.96520354       2.42046594       0.00842734       0.00000000
