10
Lattice="16.28999089631971 0.0 0.0 0.0 16.28999089631971 0.0 0.0 0.0 34.397273925272025" Properties=species:S:1:pos:R:3:initial_magmoms:R:1 pbc="T T T"
Si       1.80437814       0.45059769      -1.58564642       0.00000000
Si      -1.82677689       1.66783536      -0.37214431       0.00000000
Si       0.00177561      -0.45162396       2.51719391       0.00000000
Si      -0.58246524      -1.91365146      -1.63614165       0.00000000
Si      -3.20425929      -1.35291708       0.80785483       0.00000000
Si       0.53108658       1.80514377      -3.07013040       0.00000000
Si      -2.39161635      -0.10270845       2.85263632       0.00000000
Si      -0.72643626       3.22965540      -1.71835118       0.00000000
Si       0.49948398      -2.78294192       2.55097205       0.00000000
Si      -2.20216365      -0.89846518      -3.06184065       0.00000000
