10
Lattice="16.28999089631971 0.0 0.0 0.0 16.28999089631971 0.0 0.0 0.0 34.397273925272025" Properties=species:S:1:pos:R:3:initial_magmoms:R:1 pbc="T T T"
Si       1.49319027       1.03355000       1.48465597       0.00000000
Si       0.47574945      -2.35342512      -0.08881381       0.00000000
Si      -2.07493875       0.79400555       0.94021561       0.00000000
Si       0.23444568       0.85414823      -2.28986220       0.00000000
Si       0.69812424       3.27293630       1.24126072       0.00000000
Si      -3.30222735       1.37493953      -0.97657355       0.00000000
Si       0.10686240      -2.91766185      -2.30685446       0.00000000
Si      -1.56297663       2.98885499       1.66740879       0.00000000
Si       0.99557964      -1.09294008      -3.46404820       0.00000000
Si      -1.90296522       1.68591563      -2.91149008       0.00000000
