10
Lattice="16.28999089631971 0.0 0.0 0.0 16.28999089631971 0.0 0.0 0.0 34.397273925272025" Properties=species:S:1:pos:R:3:initial_magmoms:R:1 pbc="T T T"
Si       1.45813419       1.26734734       1.42590539       0.00000000
Si       0.64834200       1.35853876      -1.94874425       0.00000000
Si      -1.84637376       0.51388108       1.59001488       0.00000000
Si      -0.14573034      -2.24970343      -1.10057579       0.00000000
Si      -2.86923915       2.09707849       0.22303205       0.00000000
Si       0.74904678       3.49954975       1.07918068       0.00000000
Si       1.16030412       3.55338820      -1.22155107       0.00000000
Si      -1.12752864      -3.76063351       0.45039816       0.00000000
Si      -1.74557124      -2.01180427      -2.97632898       0.00000000
Si       2.72328075       0.56453321      -2.88895986       0.00000000
