10
Lattice="16.28999089631971 0.0 0.0 0.0 16.28999089631971 0.0 0.0 0.0 34.397273925272025" Properties=species:S:1:pos:R:3:initial_magmoms:R:1 pbc="T T T"
Si      -1.27778760       1.36726857       1.51606414       0.00000000
Si       1.41934770      -1.32108642       1.48566381       0.00000000
Si       1.41973866       1.53370350      -1.36551892       0.00000000
Si      -1.37801997      -1.45758033      -1.52639506       0.00000000
Si      -2.62749555      -2.68055208       0.12407792       0.00000000
Si      -2.51056593       2.79946908       0.15315395       0.00000000
Si       2.77347024      -2.69949735       0.03143569       0.00000000
Si      -2.65385277       0.02959893       2.87520094       0.00000000
Si      -2.74098798      -0.06356358      -2.81760065       0.00000000
Si       0.06566499      -2.68988625       2.87385945       0.00000000
