10
Lattice="16.28999089631971 0.0 0.0 0.0 16.28999089631971 0.0 0.0 0.0 34.397273925272025" Properties=species:S:1:pos:R:3:initial_magmoms:R:1 pbc="T T T"
Si      -1.35725022      -1.35669636       1.35666364       0.00000000
Si      -1.35690813       1.35780408      -1.35687002       0.00000000
Si       1.35786924      -1.35762489      -1.35721400       0.00000000
Si       1.35672894       1.35938421       1.35735158       0.00000000
Si      -0.00651600      -2.71119357       2.71587268       0.00000000
Si       0.00210141       2.71539639       2.71226096       0.00000000
Si       0.00177561      -2.71410948      -2.71411842       0.00000000
Si      -2.71463076       2.71425609      -0.00048156       0.00000000
Si      -2.71417464      -2.71477737       0.00013759       0.00000000
Si      -0.00011403       2.71575477      -2.71380884       0.00000000
