10
Lattice="16.28999089631971 0.0 0.0 0.0 16.28999089631971 0.0 0.0 0.0 34.397273925272025" Properties=species:S:1:pos:R:3:initial_magmoms:R:1 pbc="T T T"
Si       1.25752284      -1.42451163      -1.35177922       0.00000000
Si      -1.10034063      -1.56182004       1.34620686       0.00000000
Si       0.98036478       1.67783742       1.36282075       0.00000000
Si      -1.47289293       1.28342394      -1.35518456       0.00000000
Si      -0.93897189       3.22144524       1.12455070       0.00000000
Si      -2.36682297      -0.14472036       2.75460403       0.00000000
Si       0.72643626      -3.22965540       1.71835118       0.00000000
Si       2.59853193      -0.07115472      -2.71184819       0.00000000
Si       2.53081440      -2.77905771       0.13270476       0.00000000
Si       2.63873565       2.71262709       0.05596440       0.00000000
