10
Lattice="16.28999089631971 0.0 0.0 0.0 16.28999089631971 0.0 0.0 0.0 34.397273925272025" Properties=species:S:1:pos:R:3:initial_magmoms:R:1 pbc="T T T"
Si      -1.22272740       1.34491869      -1.51048833       0.00000000
Si       1.34024346      -1.05813324      -1.65433781       0.00000000
Si       1.02319119       1.62064323       1.41114895       0.00000000
Si      -1.11003318      -1.80134820       1.13094860       0.00000000
Si       0.62698581       3.66445179       0.24635341       0.00000000
Si       0.33725187       1.86228909      -3.27960992       0.00000000
Si      -1.67146803       3.39633468      -0.47839755       0.00000000
Si       2.94801759      -2.40829731      -0.54096623       0.00000000
Si      -3.03591843       0.09676260      -2.36605221       0.00000000
Si      -0.16990470      -2.53863360      -2.91358832       0.00000000
