10
Lattice="16.28999089631971 0.0 0.0 0.0 16.28999089631971 0.0 0.0 0.0 34.397273925272025" Properties=species:S:1:pos:R:3:initial_magmoms:R:1 pbc="T T T"
Si      -0.54462357       2.24492490       0.23290407       0.00000000
Si       2.25212508      -0.09967851      -0.65444290       0.00000000
Si      -1.52651961      -1.13845923      -1.50598229       0.00000000
Si       0.95131971       0.60302322       2.33929111       0.00000000
Si       3.04539921       1.21083570       1.14209332       0.00000000
Si      -0.36960381       3.32832393      -1.79718977       0.00000000
Si      -1.27982385      -3.47537376      -1.04983978       0.00000000
Si       2.44464030       0.39460896      -2.96490908       0.00000000
Si      -3.80110860      -0.55371339      -0.89085550       0.00000000
Si       3.29691681      -2.16782433      -0.27827410       0.00000000
