10
Lattice="16.28999089631971 0.0 0.0 0.0 16.28999089631971 0.0 0.0 0.0 34.397273925272025" Properties=species:S:1:pos:R:3:initial_magmoms:R:1 pbc="T T T"
Si      -0.79327413      -1.31051421      -1.79653622       0.00000000
Si      -0.32091300       2.30725044      -0.49793522       0.00000000
Si      -2.09407950      -0.60781248       1.19719779       0.00000000
Si       2.37475620      -0.33671430      -1.89350219       0.00000000
Si      -0.73111149      -2.00182923       2.48840338       0.00000000
Si       1.12387968       2.92599351       1.34190720       0.00000000
Si      -3.04539921      -1.21083570      -1.14209332       0.00000000
Si       2.06664714       0.98945460       2.64927952       0.00000000
Si       0.25151760      -3.37866003      -1.42036743       0.00000000
Si       1.10661228       0.93014271      -3.42713991       0.00000000
