10
Lattice="16.28999089631971 0.0 0.0 0.0 16.28999089631971 0.0 0.0 0.0 34.397273925272025" Properties=species:S:1:pos:R:3:initial_magmoms:R:1 pbc="T T T"
Si       0.39620538      -2.04380856       1.16479554       0.00000000
Si       1.97542314      -0.24004944      -1.37014738       0.00000000
Si       0.27914544       2.06951418       1.21690744       0.00000000
Si      -2.29845384      -0.26811711      -0.72475097       0.00000000
Si      -1.84971321      -2.31953310      -1.75684175       0.00000000
Si      -0.88865208      -1.61608203       3.11567242       0.00000000
Si       1.60015041       1.26856746       3.01905042       0.00000000
Si      -0.62698581      -3.66445179      -0.24635341       0.00000000
Si       3.69383895       0.70004646      -0.04395974       0.00000000
Si      -2.83472064       1.82518047      -1.82020156       0.00000000
