10
Lattice="16.28999089631971 0.0 0.0 0.0 16.28999089631971 0.0 0.0 0.0 34.397273925272025" Properties=species:S:1:pos:R:3:initial_magmoms:R:1 pbc="T T T"
Si       1.24599604      -1.29135717       1.47319135       0.00000000
Si       1.86172546       0.82710846      -1.24509182       0.00000000
Si      -0.98075737      -1.87921440      -1.25423679       0.00000000
Si      -1.47387914       1.43016426       1.43059374       0.00000000
Si      -1.26767151       0.46649673      -3.28075332       0.00000000
Si       0.73574437       1.67360202      -3.10787253       0.00000000
Si       0.83208343      -3.44321730      -0.93345276       0.00000000
Si       2.71911703      -2.52664416       0.07710497       0.00000000
Si       2.55330112       2.72357397      -0.03383318       0.00000000
Si       2.58105928       0.07996761       2.81803952       0.00000000
