10
Lattice="16.28999089631971 0.0 0.0 0.0 16.28999089631971 0.0 0.0 0.0 34.397273925272025" Properties=species:S:1:pos:R:3:initial_magmoms:R:1 pbc="T T T"
Si      -1.98420345      -0.83160450       0.87651182       0.00000000
Si       1.00554912      -0.03987792       2.17449368       0.00000000
Si      -0.38613816       2.44615527      -0.22303205       0.00000000
Si       0.21255192       1.89438039      -2.44323973       0.00000000
Si      -2.40810183       1.19221623       2.10821010       0.00000000
Si      -0.27057690       1.75420494       2.96900236       0.00000000
Si      -3.50860536      -0.80018109      -0.88287532       0.00000000
Si       3.29556474      -0.15073137       1.73327960       0.00000000
Si       3.43833030       1.47613464       0.05090799       0.00000000
Si      -2.22319404      -1.32771645      -2.80609678       0.00000000
