10
Lattice="16.28999089631971 0.0 0.0 0.0 16.28999089631971 0.0 0.0 0.0 34.397273925272025" Properties=species:S:1:pos:R:3:initial_magmoms:R:1 pbc="T T T"
Si      -1.40993208      -1.30732137      -1.36017216       0.00000000
Si       0.27471456      -1.56128247       1.76764250       0.00000000
Si      -0.49770837       2.33131796      -0.03377814       0.00000000
Si       2.29667823      -0.30734343      -0.56359965       0.00000000
Si       0.69861294      -3.58510320       0.53594422       0.00000000
Si       2.41223949      -0.99929376       2.62843476       0.00000000
Si       3.30095673       0.82542800       1.47124102       0.00000000
Si      -0.49948398       2.78294192      -2.55097205       0.00000000
Si      -0.82578897      -3.55367979      -1.22344292       0.00000000
Si       2.68281639      -2.75349870      -0.34056760       0.00000000
