10
Lattice="16.28999089631971 0.0 0.0 0.0 16.28999089631971 0.0 0.0 0.0 34.397273925272025" Properties=species:S:1:pos:R:3:initial_magmoms:R:1 pbc="T T T"
Si      -2.17860831       0.71353458      -0.38910218       0.00000000
Si       0.53245494      -1.26864891      -1.91809626       0.00000000
Si       0.71592711      -1.56871071       1.62080045       0.00000000
Si       0.91594502       2.15596521       0.41486575       0.00000000
Si       2.93684984      -0.73366902       1.65027893       0.00000000
Si      -1.76104674       1.65056796      -2.66933314       0.00000000
Si       2.83930532       1.65159423       1.60036846       0.00000000
Si      -0.47972421       2.92387581       2.17896533       0.00000000
Si      -2.61399114       2.19519153       1.40519822       0.00000000
Si      -0.50215554      -3.34786981      -1.51784935       0.00000000
