10
Lattice="16.28999089631971 0.0 0.0 0.0 16.28999089631971 0.0 0.0 0.0 34.397273925272025" Properties=species:S:1:pos:R:3:initial_magmoms:R:1 pbc="T T T"
Si      -0.88871724      -1.82472176       1.15719374       0.00000000
Si       2.34727497      -0.22545800      -0.29048514       0.00000000
Si      -0.76113396       1.94708831       1.17418600       0.00000000
Si      -1.00427850      -1.13277143      -2.03484067       0.00000000
Si      -0.51983019      -1.26048503       3.37523439       0.00000000
Si       0.38740878      -3.61880462       0.36268506       0.00000000
Si      -3.30095673      -0.82542800      -1.47124102       0.00000000
Si      -0.99557964       1.09294008       3.46404820       0.00000000
Si       3.24151452      -0.60039794       1.88823941       0.00000000
Si      -3.02624217      -2.38671047       0.29640148       0.00000000
