10
Lattice="16.28999089631971 0.0 0.0 0.0 16.28999089631971 0.0 0.0 0.0 34.397273925272025" Properties=species:S:1:pos:R:3:initial_magmoms:R:1 pbc="T T T"
Si       1.81524750      -0.18414216       1.56514563       0.00000000
Si       0.47759022      -0.37203102      -2.33069179       0.00000000
Si      -1.13295321       2.12144670       0.24291368       0.00000000
Si      -1.42200297      -2.01704409       0.38518089       0.00000000
Si       3.36195368       0.33897861      -1.17428919       0.00000000
Si      -2.95358877       1.35084825       1.66586091       0.00000000
Si      -3.14010927      -1.47124764      -1.17910481       0.00000000
Si      -0.01298313      -3.73774050      -0.69076644       0.00000000
Si       0.22709889       3.37377303       1.74645377       0.00000000
Si       3.51784898      -1.44265869       0.41180439       0.00000000
