10
Lattice="16.28999089631971 0.0 0.0 0.0 16.28999089631971 0.0 0.0 0.0 34.397273925272025" Properties=species:S:1:pos:R:3:initial_magmoms:R:1 pbc="T T T"
Si       1.73400112       1.03562046       1.19149712       0.00000000
Si      -1.13226903      -1.86121395       1.14723469       0.00000000
Si       1.55429799      -0.74275884      -1.79200511       0.00000000
Si      -2.09020248       2.02487958      -0.25778264       0.00000000
Si       0.18090045       2.17732140       2.58587052       0.00000000
Si      -2.54330883      -0.55793250       2.59046599       0.00000000
Si       2.85730577       2.41725681      -0.40414312       0.00000000
Si       2.88545489      -0.55746009       2.57116223       0.00000000
Si      -1.36158336       2.45480526      -2.71460930       0.00000000
Si      -1.10613987       3.62022444       1.18486877       0.00000000
