10
Lattice="16.28999089631971 0.0 0.0 0.0 16.28999089631971 0.0 0.0 0.0 34.397273925272025" Properties=species:S:1:pos:R:3:initial_magmoms:R:1 pbc="T T T"
Si      -1.35967743      -1.35309627      -1.37606371       0.00000000
Si       1.35071793       1.36982610      -1.37912507       0.00000000
Si      -1.23724179       1.42087896       1.49335848       0.00000000
Si       1.70221608      -1.08820458       1.31401100       0.00000000
Si       0.54781641       2.28964095       2.94953349       0.00000000
Si      -2.70356985      -2.70127296       0.00405888       0.00000000
Si       3.49978337       0.80645274       1.30998651       0.00000000
Si      -2.69081478       2.72635956      -0.00663868       0.00000000
Si       2.70727812       2.71075374      -0.00368051       0.00000000
Si       2.72787683      -2.71841004      -0.02414690       0.00000000
