10
Lattice="16.28999089631971 0.0 0.0 0.0 16.28999089631971 0.0 0.0 0.0 34.397273925272025" Properties=species:S:1:pos:R:3:initial_magmoms:R:1 pbc="T T T"
Si       1.35676152      -1.35710137      -1.35762676       0.00000000
Si       1.35635427       1.35907435       1.35673243       0.00000000
Si      -1.35982567      -1.35671041       1.35783315       0.00000000
Si      -1.35922620       1.35859054      -1.35721400       0.00000000
Si       2.71371852      -2.71404208       0.00072234       0.00000000
Si      -0.00237834      -2.71438417      -2.71487516       0.00000000
Si      -2.71481714       0.00106109      -2.71473757       0.00000000
Si       2.71448415       0.00091995      -2.71515033       0.00000000
Si       2.71450044       2.71561759      -0.00017199       0.00000000
Si      -0.00130320       2.71626919      -2.71398083       0.00000000
