10
Lattice="16.28999089631971 0.0 0.0 0.0 16.28999089631971 0.0 0.0 0.0 34.397273925272025" Properties=species:S:1:pos:R:3:initial_magmoms:R:1 pbc="T T T"
Si       1.42063461       1.25568207       1.43556213       0.00000000
Si      -1.41973866      -1.53370350       1.36551892       0.00000000
Si      -0.94276746       1.93653891      -1.30737232       0.00000000
Si      -2.06664714      -0.98945460      -2.64927952       0.00000000
Si       2.93868409      -1.11767319      -1.85600914       0.00000000
Si      -2.61814509       2.80965033       0.17769143       0.00000000
Si       0.00959481       2.55896352       2.87879343       0.00000000
Si      -2.69752626      -0.16643493       2.88158305       0.00000000
Si       2.73247646      -0.15400566       2.85533792       0.00000000
Si      -0.00039096      -2.85478992       2.85118273       0.00000000
