10
Lattice="16.28999089631971 0.0 0.0 0.0 16.28999089631971 0.0 0.0 0.0 34.397273925272025" Properties=species:S:1:pos:R:3:initial_magmoms:R:1 pbc="T T T"
Si      -0.92024069      -1.52645445      -1.60408337       0.00000000
Si       1.64645148       0.94890879      -1.58709111       0.00000000
Si       1.61289408      -1.21756347       1.46873002       0.00000000
Si      -1.90669793      -0.96355350       1.58330740       0.00000000
Si      -1.41612458       2.40215598      -0.05661794       0.00000000
Si       1.62413418       1.33152831       2.68587824       0.00000000
Si      -2.85300032      -2.11608729      -0.33430729       0.00000000
Si       1.46823888       3.11316561       1.09978465       0.00000000
Si      -2.26040270      -0.22902111      -2.99025989       0.00000000
Si       0.46667592       2.45493558      -2.99899680       0.00000000
