10
Lattice="16.28999089631971 0.0 0.0 0.0 16.28999089631971 0.0 0.0 0.0 34.397273925272025" Properties=species:S:1:pos:R:3:initial_magmoms:R:1 pbc="T T T"
Si       1.34983751       1.35037584      -1.39783720       0.00000000
Si      -1.36405944      -1.36288656      -1.40120813       0.00000000
Si       1.42257265      -1.40600619       1.49752055       0.00000000
Si      -1.32048369       1.53181290       1.51341210       0.00000000
Si      -2.55419055      -0.02277342       2.79897654       0.00000000
Si       2.52782748       0.19859139       2.82762948       0.00000000
Si      -2.69651628      -2.71267596      -0.02868734       0.00000000
Si       2.71283790       2.70795905      -0.01558197       0.00000000
Si       2.70157662      -2.72828178      -0.02572918       0.00000000
Si      -2.73709467       2.70733677      -0.01854014       0.00000000
