10
Lattice="16.28999089631971 0.0 0.0 0.0 16.28999089631971 0.0 0.0 0.0 34.397273925272025" Properties=species:S:1:pos:R:3:initial_magmoms:R:1 pbc="T T T"
Si      -0.49757805      -1.52088327       1.68704964       0.00000000
Si       2.29001562      -0.11085345      -0.44121408       0.00000000
Si      -1.27612602       1.79408286       0.79450868       0.00000000
Si      -1.00554912       0.03987792      -2.17449368       0.00000000
Si       1.22083776      -0.58078737       3.01323728       0.00000000
Si      -2.98975257      -0.79172658      -1.29798186       0.00000000
Si       2.35007685      -2.50738938      -0.44338111       0.00000000
Si       2.43278118       1.51601256      -2.12358569       0.00000000
Si      -3.41365095       1.23209415      -0.06628358       0.00000000
Si       0.65093211      -3.45532077       0.99432255       0.00000000
