10
Lattice="16.28999089631971 0.0 0.0 0.0 16.28999089631971 0.0 0.0 0.0 34.397273925272025" Properties=species:S:1:pos:R:3:initial_magmoms:R:1 pbc="T T T"
Si       0.12691539       1.41995043       1.88101598       0.00000000
Si       1.07214264       1.07163765      -1.83203423       0.00000000
Si       1.19387781      -1.95965442       0.74263756       0.00000000
Si      -2.36175678      -0.53452377      -0.28780215       0.00000000
Si      -0.21380625      -3.58984359      -0.17766202       0.00000000
Si      -0.70957611       2.16640710      -2.89415385       0.00000000
Si      -2.44233038      -2.84491818      -0.36498968       0.00000000
Si      -0.26257851       3.65990688       1.42439191       0.00000000
Si       2.70233181       2.66908392      -1.29708753       0.00000000
Si      -3.77181008       0.38081133       1.38562616       0.00000000
