10
Lattice="16.28999089631971 0.0 0.0 0.0 16.28999089631971 0.0 0.0 0.0 34.397273925272025" Properties=species:S:1:pos:R:3:initial_magmoms:R:1 pbc="T T T"
Si       0.33280470       0.38903778      -2.40368285       0.00000000
Si       0.86622075       2.11587552       1.07591293       0.00000000
Si       0.56246112      -2.47759497       0.36096519       0.00000000
Si      -1.46476259      -1.50561954      -2.39965836       0.00000000
Si      -2.61916226       1.87222599      -0.76413587       0.00000000
Si       0.70537329       1.72748934       3.46645601       0.00000000
Si      -2.32190234      -3.18860460      -0.79543740       0.00000000
Si       3.11658651       2.63604780       0.11120645       0.00000000
Si      -0.58217854      -0.68374017       4.04395217       0.00000000
Si       2.26649286      -3.33606168      -1.04461140       0.00000000
