10
Lattice="16.28999089631971 0.0 0.0 0.0 16.28999089631971 0.0 0.0 0.0 34.397273925272025" Properties=species:S:1:pos:R:3:initial_magmoms:R:1 pbc="T T T"
Si      -0.47959878       2.29291524       0.12431182       0.00000000
Si      -2.23329125      -0.82653831       0.21285045       0.00000000
Si       1.78032758      -0.83611683       1.38545417       0.00000000
Si       0.37910414      -0.26174772      -2.40471476       0.00000000
Si      -1.61111099       0.97919190      -3.16695878       0.00000000
Si      -1.97889032      -3.13831737       0.32006681       0.00000000
Si      -3.31025573       0.03126051      -1.72925512       0.00000000
Si       0.38814346       3.11873679       2.12000837       0.00000000
Si       1.40241587      -3.16998513       1.68158047       0.00000000
Si       2.86141343      -0.14630049      -2.61784039       0.00000000
