10
Lattice="16.28999089631971 0.0 0.0 0.0 16.28999089631971 0.0 0.0 0.0 34.397273925272025" Properties=species:S:1:pos:R:3:initial_magmoms:R:1 pbc="T T T"
Si      -0.76589064       1.82848734       1.25639553       0.00000000
Si       1.69562610      -0.94144797       1.39732124       0.00000000
Si      -2.06889842      -1.33152831      -0.13146645       0.00000000
Si       2.12154444      -0.87047244      -0.96525684       0.00000000
Si      -0.25572042      -0.84010788      -2.62826277       0.00000000
Si      -2.53013185      -0.40299831      -2.23909180       0.00000000
Si      -1.88919528       0.44685099       2.85203578       0.00000000
Si       0.13377348      -3.08006433      -2.17163871       0.00000000
Si       0.58355667      -2.56626144       2.76312222       0.00000000
Si      -1.23400008      -3.61623339      -0.31091713       0.00000000
