10
Lattice="16.28999089631971 0.0 0.0 0.0 16.28999089631971 0.0 0.0 0.0 34.397273925272025" Properties=species:S:1:pos:R:3:initial_magmoms:R:1 pbc="T T T"
Si       1.35811991      -1.35461124      -1.36086011       0.00000000
Si      -1.35449645       1.36063758      -1.36096330       0.00000000
Si      -1.34983751      -1.35037584       1.39783720       0.00000000
Si       1.36300039       1.35758321       1.38225523       0.00000000
Si      -2.71389695      -2.71326240      -0.00337093       0.00000000
Si      -2.71332680       0.00236306      -2.71883085       0.00000000
Si       0.00124431      -2.71285515      -2.71931241       0.00000000
Si       2.71902072       2.71688597      -0.00309576       0.00000000
Si       2.72087778      -2.71510317       0.00089433       0.00000000
Si       2.71794558       0.00209917      -2.71869326       0.00000000
