10
Lattice="16.28999089631971 0.0 0.0 0.0 16.28999089631971 0.0 0.0 0.0 34.397273925272025" Properties=species:S:1:pos:R:3:initial_magmoms:R:1 pbc="T T T"
Si       1.10525483       1.60459758       1.33010893       0.00000000
Si       1.27900397      -1.32227559      -1.52324973       0.00000000
Si      -0.88045774      -1.74338838       1.42996427       0.00000000
Si      -1.42257265       1.40600619      -1.49752055       0.00000000
Si      -2.66551594      -2.61215037      -0.02621074       0.00000000
Si       2.07150922      -3.22657659      -0.20958271       0.00000000
Si       1.65583729       0.70636698       3.41344978       0.00000000
Si       2.69012197       2.82187974      -0.01867773       0.00000000
Si       2.64814264       0.04127886      -2.89446342       0.00000000
Si      -0.07755622      -2.66320323      -2.89869429       0.00000000
