10
Lattice="16.2900001489832 0.0 0.0 0.0 16.2900001489832 0.0 0.0 0.0 29.19322770525465" Properties=species:S:1:pos:R:3:initial_magmoms:R:1 pbc="T T T"
Si      -0.79676020       1.06166818      -1.91898763       0.00000000
Si      -1.66905713      -0.90823267       1.43335829       0.00000000
Si       0.72742996       1.20925558       1.92870897       0.00000000
Si       1.78336406      -1.42726465      -0.84893906       0.00000000
H        0.31739436      -2.95365396       1.03183463       0.00000000
Si       0.12119760      -0.83792503       3.13135318       0.00000000
H       -0.18409329       3.12111516      -0.93908775       0.00000000
Si      -1.76280608      -0.87998581      -2.98083290       0.00000000
Si      -3.34330750       0.83336383       1.10858363       0.00000000
Si       2.73800694       2.28186738       1.18944887       0.00000000
