10
Lattice="16.2900001489832 0.0 0.0 0.0 16.2900001489832 0.0 0.0 0.0 29.19322770525465" Properties=species:S:1:pos:R:3:initial_magmoms:R:1 pbc="T T T"
Si      -1.12985812      -1.56179399       1.33685511       0.00000000
Si       1.65020960       1.05459669       1.30676273       0.00000000
Si       1.28855530      -1.27930910      -1.59904358       0.00000000
Si      -1.75500317       1.74139450      -0.12674853       0.00000000
H        0.40278654       2.18115934      -1.44429028       0.00000000
Si       0.32283522       2.45458700       2.64803682       0.00000000
Si      -2.43960671      -0.24031986       2.72175556       0.00000000
Si      -2.77583232      -2.55274728      -0.04015587       0.00000000
Si       1.48530592       3.25196621      -1.44396915       0.00000000
Si       3.08946369       2.31736004      -0.06341791       0.00000000
