10
Lattice="16.2900001489832 0.0 0.0 0.0 16.2900001489832 0.0 0.0 0.0 29.19322770525465" Properties=species:S:1:pos:R:3:initial_magmoms:R:1 pbc="T T T"
Si       1.36782244      -1.39200495       1.28648716       0.00000000
Si      -1.32737437       1.39999031       1.34127409       0.00000000
Si      -1.65020960      -1.05459669      -1.30676273       0.00000000
Si       1.43925409       1.26276334      -1.37018064       0.00000000
H       -1.24742305       1.12656265      -2.75105301       0.00000000
Si      -0.16490367       2.19736952      -2.75073188       0.00000000
Si      -0.36165429      -2.33390579      -2.90580631       0.00000000
Si      -2.69316056       2.60401680      -0.17078622       0.00000000
Si      -3.40521276       0.68679781      -1.43351126       0.00000000
Si       2.65680128      -2.65654553      -0.27255381       0.00000000
