10
Lattice="16.2900001489832 0.0 0.0 0.0 16.2900001489832 0.0 0.0 0.0 29.19322770525465" Properties=species:S:1:pos:R:3:initial_magmoms:R:1 pbc="T T T"
Si       1.30706074      -1.35045893      -1.42220647       0.00000000
Si      -1.31683474      -1.41268673       1.36816981       0.00000000
Si       1.35099487       1.38593529       1.36460824       0.00000000
Si      -1.35835795       1.36540664      -1.40004881       0.00000000
Si      -2.75113668       0.06190526       2.51852895       0.00000000
Si       2.65786013       2.71270694      -0.07146502       0.00000000
Si       2.75939571      -0.08840909       2.63985600       0.00000000
Si      -0.08358399       2.86174415       2.56015849       0.00000000
Si      -2.72761392      -2.70642225      -0.06153932       0.00000000
Si      -0.05655888      -2.65652598      -2.80245936       0.00000000
