10
Lattice="16.2900001489832 0.0 0.0 0.0 16.2900001489832 0.0 0.0 0.0 29.19322770525465" Properties=species:S:1:pos:R:3:initial_magmoms:R:1 pbc="T T T"
Si      -1.38880396      -1.32844951       1.30047071       0.00000000
Si      -1.38166894       1.32364396      -1.38790443       0.00000000
Si       1.21086829       1.20705643       1.64141842       0.00000000
Si       1.43457886      -1.47580885      -1.19555025       0.00000000
Si       0.12789279      -2.47898290       2.69310445       0.00000000
Si       2.66388743       2.50931162       0.16791945       0.00000000
Si       1.69901444      -0.61028857       3.26946634       0.00000000
Si       2.74144413      -0.14903721      -2.63162351       0.00000000
Si      -2.74668951       2.66475080       0.02460989       0.00000000
Si       0.08358399      -2.86174415      -2.56015849       0.00000000
