10
Lattice="16.2900001489832 0.0 0.0 0.0 16.2900001489832 0.0 0.0 0.0 29.19322770525465" Properties=species:S:1:pos:R:3:initial_magmoms:R:1 pbc="T T T"
Si       0.91774603       1.50364846       1.54560625       0.00000000
Si      -2.32849262      -0.05910012      -0.26352727       0.00000000
Si       0.93418264       1.23533587      -1.84877792       0.00000000
Si       0.98303635      -2.21092769       0.27494182       0.00000000
Si       2.93350323      -0.08715150      -1.82051887       0.00000000
Si       1.88747345      -2.26779608      -1.84188832       0.00000000
Si       2.81689941       0.06573015       2.10369318       0.00000000
H        0.91782748      -0.46884249       3.36667979       0.00000000
Si      -2.37767213      -1.51738093      -2.16459025       0.00000000
Si       1.24045093       3.29141082      -0.69815604       0.00000000
