10
Lattice="16.2900001489832 0.0 0.0 0.0 16.2900001489832 0.0 0.0 0.0 29.19322770525465" Properties=species:S:1:pos:R:3:initial_magmoms:R:1 pbc="T T T"
Si      -0.91774603      -1.50364846      -1.54560625       0.00000000
Si      -1.73296280       0.87905728       1.39190390       0.00000000
Si       1.89915338      -1.43791831       0.55808693       0.00000000
H        0.00008145      -1.97249096       1.82107354       0.00000000
Si       0.32270490       1.78776236      -2.24376229       0.00000000
H        1.77264524       1.90086383       1.68369021       0.00000000
Si       2.56963349       1.71154145      -1.36002490       0.00000000
Si       0.01643661      -0.26831259      -3.39438416       0.00000000
Si       3.07538913      -0.62840305      -1.32677381       0.00000000
Si      -3.11982825       1.78469984      -0.37758521       0.00000000
