10
Lattice="16.2900001489832 0.0 0.0 0.0 16.2900001489832 0.0 0.0 0.0 29.19322770525465" Properties=species:S:1:pos:R:3:initial_magmoms:R:1 pbc="T T T"
Si      -1.00613557       0.91411336      -1.90272700       0.00000000
Si       1.13528269      -1.68319685      -1.17750884       0.00000000
Si      -1.39297420      -1.27654957       1.40243682       0.00000000
Si       1.23800743       1.48190131       1.35260690       0.00000000
H        0.05276331      -2.75400372      -1.17782996       0.00000000
H       -2.04195152       1.92086795      -1.43756211       0.00000000
Si       2.46490508       2.74452294      -0.18937647       0.00000000
Si       2.73944046      -2.61780302       0.20304240       0.00000000
Si      -2.03437667      -0.74143936      -3.12586486       0.00000000
Si      -0.02718801      -2.48057606       2.91449713       0.00000000
