10
Lattice="16.2900001489832 0.0 0.0 0.0 16.2900001489832 0.0 0.0 0.0 29.19322770525465" Properties=species:S:1:pos:R:3:initial_magmoms:R:1 pbc="T T T"
Si       1.37373571      -0.89088382       1.73696786       0.00000000
Si       0.88181029       0.31467393      -2.20630738       0.00000000
Si      -0.94131766       2.13438098       0.56556040       0.00000000
Si      -1.93556153      -1.41978591       0.05967096       0.00000000
Si      -3.53126478      -0.08493606      -1.04339515       0.00000000
Si      -0.19420938      -1.98793062       3.17855863       0.00000000
Si      -2.37599426      -1.70134553       2.36800867       0.00000000
Si      -3.05504292       2.16893207      -0.50472171       0.00000000
Si       2.04375971       0.95360032       3.11062599       0.00000000
Si      -1.84575476       2.19124937       2.68239053       0.00000000
