10
Lattice="16.2900001489832 0.0 0.0 0.0 16.2900001489832 0.0 0.0 0.0 29.19322770525465" Properties=species:S:1:pos:R:3:initial_magmoms:R:1 pbc="T T T"
Si       1.35146728       1.35231436       1.41594161       0.00000000
Si      -1.28233252       1.63659115      -1.16991860       0.00000000
Si      -1.36826227      -1.30437289       1.47622562       0.00000000
Si       1.28682856      -1.37051029      -1.52755316       0.00000000
Si       2.66173715      -2.66175344       0.01611466       0.00000000
Si       2.72341109       2.64588698      -0.04027206       0.00000000
Si      -2.72073953      -2.64922643       0.03227311       0.00000000
H       -1.99862012       0.02054169      -3.26647696       0.00000000
Si      -2.65346183       2.81228934       0.31232375       0.00000000
Si       2.73132803       0.03829779       2.79555516       0.00000000
