10
Lattice="16.2900001489832 0.0 0.0 0.0 16.2900001489832 0.0 0.0 0.0 29.19322770525465" Properties=species:S:1:pos:R:3:initial_magmoms:R:1 pbc="T T T"
Si       1.14564313      -1.22774473      -1.67747206       0.00000000
Si      -0.96860341      -1.80581168       1.25866601       0.00000000
Si      -1.44985888       1.39701412      -1.32420481       0.00000000
Si       1.84652039       0.92370817       1.24585019       0.00000000
Si       2.41715909      -2.56837916      -0.24075655       0.00000000
Si       2.57680109       2.72039744      -0.22394125       0.00000000
Si       3.55991889      -0.89854012       0.97870296       0.00000000
Si       0.72998749      -3.56114064       1.15660649       0.00000000
Si      -2.79891525      -2.62324388      -0.09908181       0.00000000
Si      -2.79323004       2.76302838       0.14468164       0.00000000
