10
Lattice="16.2900001489832 0.0 0.0 0.0 16.2900001489832 0.0 0.0 0.0 29.19322770525465" Properties=species:S:1:pos:R:3:initial_magmoms:R:1 pbc="T T T"
Si      -0.63341939       0.75640987      -2.14126487       0.00000000
Si       2.10581646      -1.14780970       0.12360413       0.00000000
Si       0.25093442       2.02140983       1.30806095       0.00000000
Si      -1.73427414      -1.01084338       1.42579724       0.00000000
Si      -1.23079911       0.88800049       2.77531258       0.00000000
H        1.65971481       2.03175398       1.84279331       0.00000000
Si      -2.64320728       2.00782397      -1.78738456       0.00000000
Si       1.03382042       2.25727274      -3.03253411       0.00000000
Si       3.12006445      -0.94234393       2.26253353       0.00000000
Si       3.51623726      -0.53281332      -1.77985271       0.00000000
