10
Lattice="16.2900001489832 0.0 0.0 0.0 16.2900001489832 0.0 0.0 0.0 29.19322770525465" Properties=species:S:1:pos:R:3:initial_magmoms:R:1 pbc="T T T"
Si      -1.36388026       1.37500633      -1.31270268       0.00000000
Si       1.26376192       1.39663945       1.41545116       0.00000000
Si       1.43488837      -1.17615430      -1.46806903       0.00000000
Si      -1.45174852      -1.34214940       1.30300469       0.00000000
Si      -2.66929571       2.57715947       0.20537786       0.00000000
Si       2.59775003      -2.69296508      -0.04122084       0.00000000
Si       2.72984564       0.00652577       2.63802851       0.00000000
Si      -0.10730223      -2.82784629       2.55549049       0.00000000
Si      -0.00107514       2.89395111      -2.52813352       0.00000000
Si      -2.92280070      -2.50246982      -0.15773101       0.00000000
