10
Lattice="16.2900001489832 0.0 0.0 0.0 16.2900001489832 0.0 0.0 0.0 29.19322770525465" Properties=species:S:1:pos:R:3:initial_magmoms:R:1 pbc="T T T"
Si      -1.44733393      -0.82297081       1.65908032       0.00000000
Si       1.17203293      -1.39261582      -1.50537798       0.00000000
Si       1.26034102       0.94973959       1.78177946       0.00000000
Si      -1.64810819       1.12839202      -1.33725418       0.00000000
H       -2.45351349      -1.73798826       0.95418065       0.00000000
Si      -2.76688911       1.07642692       2.23190984       0.00000000
Si       0.23252346       3.09524664       2.08897979       0.00000000
Si      -2.86520903       2.40000572       0.19463125       0.00000000
Si       3.47796390       0.06959088       1.54867154       0.00000000
Si      -3.12135462      -0.67479697      -2.12509182       0.00000000
