10
Lattice="16.2900001489832 0.0 0.0 0.0 16.2900001489832 0.0 0.0 0.0 29.19322770525465" Properties=species:S:1:pos:R:3:initial_magmoms:R:1 pbc="T T T"
H       -1.00617955      -0.91501745      -0.70489968       0.00000000
Si       1.44733393       0.82297081      -1.65908032       0.00000000
Si      -1.31955517       1.89939773       0.57282951       0.00000000
Si       0.74977984      -0.91868107       2.09776696       0.00000000
Si       2.70767495       1.77271040       0.12269914       0.00000000
Si      -1.82835704      -2.85068487      -0.22680219       0.00000000
Si       2.32394771       0.91199566       2.34795292       0.00000000
Si      -2.84154618       0.70063291       1.94996164       0.00000000
Si      -0.20077425       1.95136283      -2.99633451       0.00000000
Si      -3.51157017      -1.14385123       0.57630351       0.00000000
