10
Lattice="16.2900001489832 0.0 0.0 0.0 16.2900001489832 0.0 0.0 0.0 29.19322770525465" Properties=species:S:1:pos:R:3:initial_magmoms:R:1 pbc="T T T"
Si       0.30626829       2.05607495       1.15062188       0.00000000
Si      -0.95218309       0.23978880      -2.18695227       0.00000000
Si       1.99932059      -1.32248737       0.02825904       0.00000000
Si      -0.93418264      -1.23533587       1.84877792       0.00000000
Si      -0.01643661       0.26831259       3.39438416       0.00000000
Si       0.95329081      -3.50313195       0.00688960       0.00000000
H       -2.54931986       2.64894950       0.11893321       0.00000000
Si       3.05895252      -0.36009045       2.06761035       0.00000000
Si      -1.46251621      -2.01008828      -2.87351860       0.00000000
Si      -1.16043445      -3.46858086      -1.06339251       0.00000000
