10
Lattice="16.2900001489832 0.0 0.0 0.0 16.2900001489832 0.0 0.0 0.0 29.19322770525465" Properties=species:S:1:pos:R:3:initial_magmoms:R:1 pbc="T T T"
Si      -1.27151596       1.34063443      -1.43671551       0.00000000
Si       1.14275980       1.66983905       1.21945951       0.00000000
Si       1.42174234      -1.39178503      -1.27980191       0.00000000
Si      -1.68717161      -0.99276148       1.39736304       0.00000000
Si      -2.41715909       2.56837916       0.24075655       0.00000000
Si       2.42774759       0.28364148       2.70641656       0.00000000
Si      -3.38576250       0.76256749       1.49942256       0.00000000
Si      -2.65499309      -0.05286105      -2.74001797       0.00000000
Si       0.08708634      -2.75237472      -2.65997014       0.00000000
Si      -0.57063871       3.49208733       1.48660673       0.00000000
