10
Lattice="16.2900001489832 0.0 0.0 0.0 16.2900001489832 0.0 0.0 0.0 29.19322770525465" Properties=species:S:1:pos:R:3:initial_magmoms:R:1 pbc="T T T"
Si       1.01424799       0.20546577       2.13892941       0.00000000
Si      -2.10581646       1.14780970      -0.12360413       0.00000000
Si       1.41042079       0.61499638      -1.90345683       0.00000000
Si       0.08428446      -2.46752777      -0.03047773       0.00000000
Si       2.21635226      -2.65302200      -1.04558464       0.00000000
H       -0.44610165       3.17956368       1.71918918       0.00000000
Si       1.71308900      -1.40217805      -3.01893006       0.00000000
Si      -1.85488204       3.16921953       1.18445683       0.00000000
Si      -0.26585280      -1.00188388       3.72385893       0.00000000
Si       2.99599167      -1.04923891       2.39921623       0.00000000
