10
Lattice="16.2900001489832 0.0 0.0 0.0 16.2900001489832 0.0 0.0 0.0 29.19322770525465" Properties=species:S:1:pos:R:3:initial_magmoms:R:1 pbc="T T T"
Si       1.45409428       1.54518796      -1.10731372       0.00000000
Si      -1.25095798       1.41030676       1.48939761       0.00000000
Si       1.43764138      -1.15921270       1.56250037       0.00000000
Si      -1.46714257      -1.33426504      -1.66563420       0.00000000
H        2.30097881       0.66945385      -2.00821673       0.00000000
H        0.44639487      -2.88899895      -1.59802269       0.00000000
Si      -2.68754051      -2.60609051       0.00211651       0.00000000
Si       2.89935939      -2.53360001       0.32325953       0.00000000
Si      -2.67504608       0.44176851      -2.77351719       0.00000000
Si      -2.59540427       2.89600365       0.23691180       0.00000000
