10
Lattice="16.2900001489832 0.0 0.0 0.0 16.2900001489832 0.0 0.0 0.0 29.19322770525465" Properties=species:S:1:pos:R:3:initial_magmoms:R:1 pbc="T T T"
Si       1.74361646      -1.67223368      -0.34567701       0.00000000
Si       0.60623236       2.04718061      -1.20264421       0.00000000
Si      -1.79025473      -0.07030764      -1.69799490       0.00000000
Si      -0.26034678       0.43987887       2.44837762       0.00000000
H        0.19619676      -2.11572893      -2.09951855       0.00000000
Si      -0.12119760       0.83792503      -3.13135318       0.00000000
Si       2.85324240      -1.03803139       1.61359727       0.00000000
Si      -0.71768854       3.62207013       0.06991778       0.00000000
H       -2.03828627      -2.33769647       2.15472294       0.00000000
Si       1.18426672      -1.26371305       3.41989905       0.00000000
