10
Lattice="16.2900001489832 0.0 0.0 0.0 16.2900001489832 0.0 0.0 0.0 29.19322770525465" Properties=species:S:1:pos:R:3:initial_magmoms:R:1 pbc="T T T"
Si       1.68389732       1.07311516      -1.26138098       0.00000000
Si      -1.04995567      -1.77833045      -1.15815373       0.00000000
Si       1.36489024      -1.40794471       1.38057693       0.00000000
Si      -1.76969675       1.79854308       0.06515928       0.00000000
Si      -2.45100971      -0.46885878      -2.52451356       0.00000000
Si       0.39407139       2.34316828      -2.74162359       0.00000000
Si       2.91519327      -0.07568334       2.46189409       0.00000000
Si      -0.94574854       3.55982115      -1.28762569       0.00000000
Si       0.13947498      -2.22436694       3.22576408       0.00000000
Si      -3.67060944       0.93756933      -1.05189038       0.00000000
