10
Lattice="16.2900001489832 0.0 0.0 0.0 16.2900001489832 0.0 0.0 0.0 29.19322770525465" Properties=species:S:1:pos:R:3:initial_magmoms:R:1 pbc="T T T"
Si      -0.06320520       2.18466821      -0.91187966       0.00000000
Si       1.99970177      -0.72244522       1.05104378       0.00000000
Si      -1.36301689       0.11663640       1.94175835       0.00000000
Si      -0.86778460      -1.60924024      -1.65306652       0.00000000
Si      -2.40904667      -2.06400818       1.92038890       0.00000000
Si      -2.37900791       2.35559918      -1.66725443       0.00000000
Si       3.21680262      -1.99405892      -0.48084165       0.00000000
Si       3.51103260       1.04581801       1.50978616       0.00000000
Si      -0.58591873      -3.88371523      -0.85147887       0.00000000
Si       0.31094352      -1.40965516      -3.79377671       0.00000000
