10
Lattice="16.2900001489832 0.0 0.0 0.0 16.2900001489832 0.0 0.0 0.0 29.19322770525465" Properties=species:S:1:pos:R:3:initial_magmoms:R:1 pbc="T T T"
Si       0.84520666      -2.18459002      -0.03625799       0.00000000
Si      -2.18178488       0.28658509      -0.81054997       0.00000000
Si       0.13830210       0.38065006       2.32629154       0.00000000
Si       1.56794509       1.09704680      -1.44159078       0.00000000
Si      -1.74135215       0.56814471      -3.11888768       0.00000000
Si       2.86431145      -1.87056769       1.17485226       0.00000000
Si       2.50243724      -0.03414058       2.61942074       0.00000000
Si       2.23796909       2.94153094      -0.06793264       0.00000000
Si       0.19420938       1.98793062      -3.17855863       0.00000000
Si       1.81367975      -2.52071788      -2.16523251       0.00000000
