10
Lattice="16.2900001489832 0.0 0.0 0.0 16.2900001489832 0.0 0.0 0.0 29.19322770525465" Properties=species:S:1:pos:R:3:initial_magmoms:R:1 pbc="T T T"
Si      -0.02665044       1.11290023       2.09426377       0.00000000
Si       1.88404733       0.73133956      -1.24812726       0.00000000
Si       0.50575563      -2.33994449       0.03325109       0.00000000
Si      -2.24692859       0.07622091      -0.88373739       0.00000000
H       -2.06842277       2.21223089       0.35481449       0.00000000
H       -0.79698826       0.18932238       3.04371511       0.00000000
Si      -2.56963349      -1.71154145       1.36002490       0.00000000
Si       2.74242478      -2.17728884       0.91050758       0.00000000
Si      -1.51096267       2.94288627       1.55106538       0.00000000
Si      -0.67048012      -3.14945976       1.91811183       0.00000000
