10
Lattice="16.2900001489832 0.0 0.0 0.0 16.2900001489832 0.0 0.0 0.0 29.19322770525465" Properties=species:S:1:pos:R:3:initial_magmoms:R:1 pbc="T T T"
Si       1.79872553       0.93180430       1.17545218       0.00000000
Si       0.15480387      -0.55956151      -2.29042328       0.00000000
Si      -0.89862157      -1.81477118       1.21926245       0.00000000
Si      -1.71600491       1.66447964       0.18870648       0.00000000
Si      -2.16345863      -0.31745952      -2.72432223       0.00000000
Si       0.53454006       2.26792640       2.66927840       0.00000000
Si      -2.25453602      -0.58845997       2.72180285       0.00000000
Si      -2.27302517       1.98112466      -2.00628560       0.00000000
H       -1.02983752       2.73865854      -2.43998019       0.00000000
Si       2.91030627       2.44949474      -0.23875243       0.00000000
