10
Lattice="16.2900001489832 0.0 0.0 0.0 16.2900001489832 0.0 0.0 0.0 29.19322770525465" Properties=species:S:1:pos:R:3:initial_magmoms:R:1 pbc="T T T"
Si      -0.67238605      -1.11941623      -0.78888859       0.00000000
H       -0.52168725      -0.91038295       1.89998284       0.00000000
Si       2.50761746       1.04137084      -0.03453559       0.00000000
Si       1.40926420       1.00988227      -2.10494849       0.00000000
Si      -2.42098724       0.25847343      -1.58411211       0.00000000
Si       0.90595207      -1.21016782      -2.48939411       0.00000000
Si       1.53914437       1.37749870       2.09443893       0.00000000
Si      -0.81511903       2.05341968      -2.16371446       0.00000000
Si       0.03577284      -0.17972757       3.09623373       0.00000000
Si      -0.70019308      -3.04639293       0.66143096       0.00000000
