10
Lattice="16.2900001489832 0.0 0.0 0.0 16.2900001489832 0.0 0.0 0.0 29.19322770525465" Properties=species:S:1:pos:R:3:initial_magmoms:R:1 pbc="T T T"
H       -0.67175074      -0.54125154      -1.25793618       0.00000000
Si      -1.25869573      -1.13718862       1.63992957       0.00000000
Si      -0.79982272       2.28343448      -0.40412185       0.00000000
Si       2.18383742      -1.13412610      -0.22624751       0.00000000
H        2.36234324       1.00188388       1.01230436       0.00000000
Si       2.21164445       0.79285060      -1.67656707       0.00000000
Si       0.46304325       2.17074026      -2.47179059       0.00000000
Si      -2.49031748      -2.42491313      -0.03619960       0.00000000
H        2.88403050       1.91226683      -0.88767847       0.00000000
Si      -2.30176073       0.55162828       2.85968101       0.00000000
