10
Lattice="16.2900001489832 0.0 0.0 0.0 16.2900001489832 0.0 0.0 0.0 29.19322770525465" Properties=species:S:1:pos:R:3:initial_magmoms:R:1 pbc="T T T"
H        0.55448945      -0.77167360      -1.15415426       0.00000000
Si      -1.11158074      -1.51769044       1.41420461       0.00000000
Si      -1.04288581       1.55302345      -1.44118207       0.00000000
Si       1.59828522       1.15470037       1.31874276       0.00000000
H        1.71350113      -2.02720907      -0.84730424       0.00000000
Si      -2.47047626       2.56153736       0.11516728       0.00000000
Si       0.90870671       2.67542075      -2.22831907       0.00000000
Si       2.24422445       2.96987880      -0.10039551       0.00000000
Si      -2.37576620      -0.18156834       2.90803083       0.00000000
Si       0.28360890       2.46622457       2.83105997       0.00000000
