10
Lattice="16.2900001489832 0.0 0.0 0.0 16.2900001489832 0.0 0.0 0.0 29.19322770525465" Properties=species:S:1:pos:R:3:initial_magmoms:R:1 pbc="T T T"
Si       1.31295772       1.36256077       1.36288000       0.00000000
Si      -1.34615674       1.28870191      -1.42718100       0.00000000
Si       1.26418546      -1.33612210      -1.49382622       0.00000000
Si      -1.43378065      -1.37111302       1.29833377       0.00000000
Si      -2.25054497      -0.60344677      -2.48057191       0.00000000
Si      -0.53454006      -2.26792640      -2.66927840       0.00000000
Si       0.02785590      -2.72645733       2.52605496       0.00000000
Si       2.65937510       2.64779291      -0.07697086       0.00000000
Si       2.37576620       0.18156834      -2.90803083       0.00000000
Si       2.68381010      -0.02783961       2.64510494       0.00000000
