10
Lattice="16.2900001489832 0.0 0.0 0.0 16.2900001489832 0.0 0.0 0.0 29.19322770525465" Properties=species:S:1:pos:R:3:initial_magmoms:R:1 pbc="T T T"
Si      -1.34641738      -1.28523214       1.43985086       0.00000000
Si      -1.31328352       1.39111714      -1.39914382       0.00000000
Si       1.37631442       1.38447082       1.36391928       0.00000000
Si       1.31467632      -1.31152420      -1.51231721       0.00000000
Si       1.96061555       0.50365422      -2.93145548       0.00000000
Si       0.43448525       2.40432257      -2.64873045       0.00000000
Si      -2.65937510      -2.64779291       0.07697086       0.00000000
Si      -0.28360890      -2.46622457      -2.83105997       0.00000000
Si       0.02443500      -2.67563252       2.72207581       0.00000000
Si       2.72090243      -2.70293456      -0.15175516       0.00000000
