10
Lattice="16.2900001489832 0.0 0.0 0.0 16.2900001489832 0.0 0.0 0.0 29.19322770525465" Properties=species:S:1:pos:R:3:initial_magmoms:R:1 pbc="T T T"
Si       1.46241847      -1.32996448      -1.28829714       0.00000000
Si       1.39647655       1.34526079       1.34738423       0.00000000
Si      -1.33292926      -1.37165059       1.43087686       0.00000000
Si      -1.30886893       1.31300659      -1.51515771       0.00000000
Si      -2.64684809       2.68270238      -0.12532653       0.00000000
Si       0.14946075      -2.69252525      -2.65117714       0.00000000
Si       0.02445129       2.75687076       2.62365376       0.00000000
Si      -2.66758526      -2.73224028       0.05070864       0.00000000
Si      -2.75467161       0.02013444       2.71067877       0.00000000
Si       2.67750587       0.01454697       2.80590708       0.00000000
