10
Lattice="16.2900001489832 0.0 0.0 0.0 16.2900001489832 0.0 0.0 0.0 29.19322770525465" Properties=species:S:1:pos:R:3:initial_magmoms:R:1 pbc="T T T"
Si      -1.20611161      -1.49794696      -1.40404829       0.00000000
Si       1.46401489       1.24333426      -1.43108122       0.00000000
Si       1.49481928      -1.30781008       1.36279826       0.00000000
Si      -1.54041499       1.53256321       1.18010704       0.00000000
Si      -2.54642024      -0.14286330      -2.80611143       0.00000000
Si      -0.21520719       2.78954850       2.64035229       0.00000000
Si       2.72725553       2.72171693      -0.04907382       0.00000000
Si       0.17449848      -2.79725367       2.65567873       0.00000000
Si       0.18298557       2.57404808      -2.88960406       0.00000000
Si       2.72203459       0.17018163       2.78926694       0.00000000
