10
Lattice="16.2900001489832 0.0 0.0 0.0 16.2900001489832 0.0 0.0 0.0 29.19322770525465" Properties=species:S:1:pos:R:3:initial_magmoms:R:1 pbc="T T T"
H       -1.89907193      -0.53457264       1.26298661       0.00000000
Si       1.17623575       0.80951527      -1.88486075       0.00000000
Si       0.99818605       0.72928702       2.02303229       0.00000000
Si       0.08016309      -2.40593528      -0.35061066       0.00000000
Si      -1.89915338       1.43791831      -0.55808693       0.00000000
Si      -1.83386306      -2.27665784      -1.82875136       0.00000000
Si      -2.81689941      -0.06573015      -2.10369318       0.00000000
H       -0.12650814       3.33878214       1.12560328       0.00000000
Si       3.41290490       0.97217092      -1.00760425       0.00000000
Si       2.94977857       1.85168432       1.23589529       0.00000000
