10
Lattice="16.2900001489832 0.0 0.0 0.0 16.2900001489832 0.0 0.0 0.0 29.19322770525465" Properties=species:S:1:pos:R:3:initial_magmoms:R:1 pbc="T T T"
Si       1.39126375       1.36614457      -1.28545664       0.00000000
Si      -1.33762078       1.44308224       1.26053438       0.00000000
Si       1.40056534      -1.31905018       1.40825211       0.00000000
Si      -1.37477827      -1.28054062      -1.48446979       0.00000000
Si      -2.68407074       0.09055611       2.61364048       0.00000000
Si       0.08693973      -2.65492793      -2.72371063       0.00000000
Si      -2.68021001       2.71409321      -0.19865991       0.00000000
Si      -0.01213605      -2.65605194       2.75096543       0.00000000
Si      -2.71748153      -2.68830614      -0.11157652       0.00000000
Si       0.02826315       2.76407094       2.66811505       0.00000000
