10
Lattice="16.2900001489832 0.0 0.0 0.0 16.2900001489832 0.0 0.0 0.0 29.19322770525465" Properties=species:S:1:pos:R:3:initial_magmoms:R:1 pbc="T T T"
Si      -1.37202526       1.41160996       1.27626953       0.00000000
Si       1.28102932      -1.33071382       1.45852285       0.00000000
Si      -1.39647655      -1.34526079      -1.34738423       0.00000000
Si       1.41270139       1.33700176      -1.34271332       0.00000000
Si       0.06594192      -2.67522527      -2.63568137       0.00000000
Si       2.72034369      -2.66043395       0.06206480       0.00000000
Si       2.54426996       0.14766885       2.84053025       0.00000000
Si       0.01213605       2.65605194      -2.75096543       0.00000000
Si      -2.67193469       2.74660806      -0.13732494       0.00000000
Si      -2.72940581      -2.71691138       0.08349263       0.00000000
