10
Lattice="16.2900001489832 0.0 0.0 0.0 16.2900001489832 0.0 0.0 0.0 29.19322770525465" Properties=species:S:1:pos:R:3:initial_magmoms:R:1 pbc="T T T"
Si      -1.43444854       1.59855400      -0.99487601       0.00000000
Si       2.33300495       0.77823847      -0.13837590       0.00000000
Si       0.48366639       0.03560994       2.41933036       0.00000000
Si      -0.93488311      -2.28791423      -0.39524711       0.00000000
H       -0.44518941      -0.22156029      -2.82581686       0.00000000
Si       2.63508671      -0.68025412       1.67175018       0.00000000
Si      -2.35926443       2.34766595       1.00678684       0.00000000
Si      -0.14165784      -3.21188304       1.59368749       0.00000000
Si      -0.78926680      -1.70365709       3.22672746       0.00000000
Si       2.15886485      -2.93412225       1.13307675       0.00000000
