10
Lattice="16.2900001489832 0.0 0.0 0.0 16.2900001489832 0.0 0.0 0.0 29.19322770525465" Properties=species:S:1:pos:R:3:initial_magmoms:R:1 pbc="T T T"
Si       1.73296280      -0.87905728      -1.39190390       0.00000000
Si      -1.18412011      -1.97674265       0.66096387       0.00000000
Si      -1.38686545       0.90564256      -1.76948911       0.00000000
Si       0.27701145       1.91596466       2.07341980       0.00000000
H        2.19054890       0.36123075       2.14103132       0.00000000
H        1.73304425      -2.85154824       0.42916964       0.00000000
Si      -2.34333281      -0.86213197       2.48592011       0.00000000
H       -3.27950283       1.36738261       0.30711276       0.00000000
Si      -2.42993045       2.59445945      -0.54973767       0.00000000
H        3.50560803       1.02180655       0.29178631       0.00000000
