10
Lattice="16.2900001489832 0.0 0.0 0.0 16.2900001489832 0.0 0.0 0.0 29.19322770525465" Properties=species:S:1:pos:R:3:initial_magmoms:R:1 pbc="T T T"
Si      -0.90443710       0.05686839       2.11683013       0.00000000
Si      -2.11372526       0.03455109      -1.07028211       0.00000000
Si       0.94131766      -2.13438098      -0.56556040       0.00000000
Si       1.04602978       2.18064458       0.02136944       0.00000000
Si      -1.88747345       2.26779608       1.84188832       0.00000000
Si      -0.95329081       3.50313195      -0.00688960       0.00000000
Si       2.40904667       2.06400818      -1.92038890       0.00000000
Si      -0.99424387      -3.55416689      -0.50588944       0.00000000
Si       1.00958905      -0.07240905       3.59497083       0.00000000
Si      -2.58994712      -2.21931704      -1.60895555       0.00000000
