10
Lattice="16.2900001489832 0.0 0.0 0.0 16.2900001489832 0.0 0.0 0.0 29.19322770525465" Properties=species:S:1:pos:R:3:initial_magmoms:R:1 pbc="T T T"
Si       1.23808888      -1.32356251       1.51394911       0.00000000
Si      -1.37940463       1.43364382       1.32437121       0.00000000
Si      -1.51150024      -1.26584704      -1.35487813       0.00000000
Si       1.86799549       0.84308896      -1.27640674       0.00000000
H       -0.66461572      -2.14158116      -2.25578114       0.00000000
Si       2.65673612      -2.61353504       0.15367315       0.00000000
Si       2.77951223       2.62957255       0.03753957       0.00000000
Si      -2.83338489       0.02438613       2.60074583       0.00000000
Si      -2.67436190       0.25096374      -2.78172633       0.00000000
Si      -0.15317487      -2.68970708       2.79940575       0.00000000
