10
Lattice="16.2900001489832 0.0 0.0 0.0 16.2900001489832 0.0 0.0 0.0 29.19322770525465" Properties=species:S:1:pos:R:3:initial_magmoms:R:1 pbc="T T T"
Si       0.06320520      -2.18466821       0.91187966       0.00000000
Si       0.50347503       1.89884387       1.34951534       0.00000000
Si      -2.31580271       0.17093097      -0.75537477       0.00000000
Si       1.73427414       1.01084338      -1.42579724       0.00000000
Si      -1.38671884       3.14675562       0.82517577       0.00000000
Si      -2.21237750       2.47953350      -1.25816973       0.00000000
Si       1.98520856       3.03225321      -0.11773629       0.00000000
Si      -1.29981169      -2.06803181       2.85363801       0.00000000
Si      -2.63306675      -1.20642112      -2.63886343       0.00000000
Si      -0.80457940      -3.79390845      -0.74118686       0.00000000
