10
Lattice="16.2900001489832 0.0 0.0 0.0 16.2900001489832 0.0 0.0 0.0 29.19322770525465" Properties=species:S:1:pos:R:3:initial_magmoms:R:1 pbc="T T T"
Si      -1.28102932       1.33071382      -1.45852285       0.00000000
Si       1.26324064       1.47838267       1.38200740       0.00000000
Si      -1.46401489      -1.24333426       1.43108122       0.00000000
Si       1.43931437      -1.32972013      -1.39645805       0.00000000
Si       2.62787024       0.08842212       2.68659436       0.00000000
Si       0.03080439      -2.55114434       2.79387947       0.00000000
Si      -2.65305458       2.74232379      -0.18225332       0.00000000
Si      -2.67012650      -2.74128123       0.02703293       0.00000000
Si       0.13167207       2.66771558      -2.80123616       0.00000000
Si       2.80714170      -2.66483225      -0.02723728       0.00000000
