10
Lattice="16.2900001489832 0.0 0.0 0.0 16.2900001489832 0.0 0.0 0.0 29.19322770525465" Properties=species:S:1:pos:R:3:initial_magmoms:R:1 pbc="T T T"
Si      -0.22320558      -0.49453182      -2.28364024       0.00000000
Si       2.31826250      -0.24210198       0.43389894       0.00000000
Si      -1.36280512      -1.51894477       1.21543084       0.00000000
Si      -0.10956654       2.29858418       0.71803663       0.00000000
H        1.13362111       3.05611806       0.28434204       0.00000000
Si       1.19882998       1.31403286      -2.80739594       0.00000000
Si       2.16345863       0.31745952       2.72432223       0.00000000
Si       0.44745372       1.98193916       2.91302871       0.00000000
Si       3.11285613       1.18475542      -1.32925524       0.00000000
Si      -2.57039912      -0.61499638      -2.45760268       0.00000000
