10
Lattice="16.2900001489832 0.0 0.0 0.0 16.2900001489832 0.0 0.0 0.0 29.19322770525465" Properties=species:S:1:pos:R:3:initial_magmoms:R:1 pbc="T T T"
Si      -1.04306500       1.68881690       1.21975144       0.00000000
Si       1.25869573       1.13718862      -1.63992957       0.00000000
Si       1.38686545      -0.90564256       1.76948911       0.00000000
Si      -1.23162175      -1.28772451      -1.67612917       0.00000000
H       -1.89263738       0.46174005       2.07660187       0.00000000
H        0.58694500       0.59593708      -2.89786575       0.00000000
Si       3.11982825      -1.78469984       0.37758521       0.00000000
Si      -0.12641040      -3.34744842      -1.43154831       0.00000000
Si       0.20274534      -2.88238521       2.43045298       0.00000000
Si       3.44253315       0.00306252      -1.86617708       0.00000000
