10
Lattice="16.2900001489832 0.0 0.0 0.0 16.2900001489832 0.0 0.0 0.0 29.19322770525465" Properties=species:S:1:pos:R:3:initial_magmoms:R:1 pbc="T T T"
Si      -1.10962594      -0.63420229      -1.95927428       0.00000000
Si       2.17756577      -1.06359040       0.12833343       0.00000000
Si       0.30612168       2.41179968       0.12652345       0.00000000
Si      -1.66897568      -0.22568166       1.80630177       0.00000000
H        1.66619009       2.33533442       0.82158501       0.00000000
Si      -2.85324240       1.03803139      -1.61359727       0.00000000
Si      -3.11358918       1.47791026       0.83478035       0.00000000
Si       0.26653698       0.07750782      -3.72604842       0.00000000
Si       3.29082438       0.27313443       1.85458737       0.00000000
Si      -1.48388869       3.19253052       1.54105210       0.00000000
