10
Lattice="16.2900001489832 0.0 0.0 0.0 16.2900001489832 0.0 0.0 0.0 29.19322770525465" Properties=species:S:1:pos:R:3:initial_magmoms:R:1 pbc="T T T"
Si       2.32849262       0.05910012       0.26352727       0.00000000
Si      -1.10521135       2.05972391      -0.24458086       0.00000000
Si      -1.00388755      -0.50920911       2.11519531       0.00000000
Si      -0.04917951      -1.45828081      -1.90106299       0.00000000
Si      -1.32211270      -3.19754784      -1.09366589       0.00000000
Si       0.12641040       3.34744842       1.43154831       0.00000000
Si      -3.31967397       1.58671117       0.40213671       0.00000000
Si       3.26267526       1.29443599      -1.58525065       0.00000000
Si       0.32915574       0.46506321       3.86200129       0.00000000
Si      -2.83079478       0.89813287       2.55668450       0.00000000
