10
Lattice="16.2900001489832 0.0 0.0 0.0 16.2900001489832 0.0 0.0 0.0 29.19322770525465" Properties=species:S:1:pos:R:3:initial_magmoms:R:1 pbc="T T T"
Si      -1.74776878      -1.01320543       1.24958663       0.00000000
Si       0.97520249       1.71789455       1.32756466       0.00000000
Si       0.03260606       0.17457993      -2.37532478       0.00000000
Si       1.52613029      -1.90066835      -0.28272502       0.00000000
Si       0.19061255      -2.19512639      -2.41064859       0.00000000
H       -2.34614935       2.18984843      -1.08188963       0.00000000
Si       2.33386995       0.39019437       2.70827880       0.00000000
Si      -0.43448525      -2.40432257       2.64873045       0.00000000
Si       2.45042490       0.54131670      -2.69682980       0.00000000
Si       3.59896765      -0.87016294       1.16071368       0.00000000
