10
Lattice="16.2900001489832 0.0 0.0 0.0 16.2900001489832 0.0 0.0 0.0 29.19322770525465" Properties=species:S:1:pos:R:3:initial_magmoms:R:1 pbc="T T T"
Si       1.36334758      -1.45724151      -1.23995315       0.00000000
Si      -1.37943721      -1.40684025       1.29387305       0.00000000
Si       1.38394954       1.36417022       1.35243466       0.00000000
Si      -1.28213704       1.33145990      -1.48027180       0.00000000
Si       2.72785826      -0.03460648      -2.49675372       0.00000000
Si      -2.67748958      -0.01186727       2.65360601       0.00000000
Si      -2.63899631       2.69879365      -0.09578298       0.00000000
Si       2.71521722       2.74608352       0.00294852       0.00000000
Si       0.04657311       2.81207431       2.64762140       0.00000000
Si      -0.01643661      -2.80476661      -2.65969864       0.00000000
