10
Lattice="16.2900001489832 0.0 0.0 0.0 16.2900001489832 0.0 0.0 0.0 29.19322770525465" Properties=species:S:1:pos:R:3:initial_magmoms:R:1 pbc="T T T"
Si       1.34547256      -1.05208966      -1.62480601       0.00000000
Si      -0.98942203      -1.74770525       1.23869055       0.00000000
Si       1.64597419       0.99095329       1.37701098       0.00000000
Si      -1.77816266       1.70891876      -0.19138934       0.00000000
Si      -2.40806927      -0.45773271       2.59896651       0.00000000
Si       2.65290797      -2.43204815      -0.07818705       0.00000000
Si       0.33622560       2.31242742       2.76191143       0.00000000
H       -1.77925572      -0.81435340      -3.10274236       0.00000000
Si       2.77583232       2.55274728       0.04015587       0.00000000
Si      -0.86664593       3.49540235       1.12255697       0.00000000
