10
Lattice="16.2900001489832 0.0 0.0 0.0 16.2900001489832 0.0 0.0 0.0 29.19322770525465" Properties=species:S:1:pos:R:3:initial_magmoms:R:1 pbc="T T T"
Si      -1.43430193       1.47459199       1.15035914       0.00000000
Si       1.31683474       1.41268673      -1.36816981       0.00000000
Si      -1.41077917      -1.29373552      -1.42970913       0.00000000
Si       1.32685309      -1.34899120       1.53404573       0.00000000
Si      -2.79950006       0.00708615       2.36208244       0.00000000
Si       2.67022424      -2.71500545       0.06515928       0.00000000
Si       2.62389548       0.06222780      -2.79037628       0.00000000
Si      -0.05214429      -2.65347812      -2.80330888       0.00000000
Si      -0.15555321       2.94598137       2.49245940       0.00000000
Si       2.66782961       2.79862203      -0.00356157       0.00000000
