10
Lattice="16.2900001489832 0.0 0.0 0.0 16.2900001489832 0.0 0.0 0.0 29.19322770525465" Properties=species:S:1:pos:R:3:initial_magmoms:R:1 pbc="T T T"
Si       0.22320558       0.49453182       2.28364024       0.00000000
Si      -2.34719354      -0.12046455      -0.17396244       0.00000000
Si       1.42203556       1.80856469      -0.52375570       0.00000000
Si       0.89179606      -2.08403022      -0.83813757       0.00000000
Si      -2.64437201      -2.48556895      -0.05091299       0.00000000
Si       2.54146808       0.25242984       2.71753918       0.00000000
Si      -1.13959954      -1.02441295       3.49907108       0.00000000
Si       3.33606171       1.67928725       0.95438500       0.00000000
Si       1.33222879      -1.80247060      -3.14647528       0.00000000
Si      -0.59942314      -3.83122885      -0.13606963       0.00000000
