10
Lattice="16.28999089631971 0.0 0.0 0.0 16.28999089631971 0.0 0.0 0.0 34.31052061344573" Properties=species:S:1:pos:R:3:initial_magmoms:R:1 pbc="T T T"
Si      -1.35780408       1.35158130       1.36308912       0.00000000
Si       1.36093176      -1.36225125       1.36037859       0.00000000
Si       1.36223496       1.35715248      -1.38650950       0.00000000
Si      -1.34983827      -1.38629529      -1.37311123       0.00000000
Si       2.55340863      -0.21315465      -2.71878776       0.00000000
Si      -2.71239903       2.70964602       0.00401433       0.00000000
Si       2.72148885       2.70488934       0.00123518       0.00000000
Si       0.00169416       2.71008585       2.71883579       0.00000000
Si      -2.70972747      -2.72117608       0.00236743       0.00000000
Si      -2.71327869      -0.00408879       2.71904166       0.00000000
