10
Lattice="16.28999089631971 0.0 0.0 0.0 16.28999089631971 0.0 0.0 0.0 34.31052061344573" Properties=species:S:1:pos:R:3:initial_magmoms:R:1 pbc="T T T"
Si      -1.35355239       1.35618474      -1.35907479       0.00000000
Si      -1.35614250      -1.35809808       1.35749651       0.00000000
Si       1.35689184      -1.35317850      -1.36181963       0.00000000
Si       1.35876519       1.35710676       1.35739358       0.00000000
Si       0.00633681       2.69106554      -2.73455345       0.00000000
Si      -2.71357191      -0.00026147       2.71458129       0.00000000
Si       0.00115659      -2.71427316       2.71458129       0.00000000
Si       0.00125433       2.71465346       2.71434111       0.00000000
Si      -2.71432125      -2.71508766      -0.00003431       0.00000000
Si       2.71518462       0.00010976       2.71513026       0.00000000
