10
Lattice="16.28999089631971 0.0 0.0 0.0 16.28999089631971 0.0 0.0 0.0 34.31052061344573" Properties=species:S:1:pos:R:3:initial_magmoms:R:1 pbc="T T T"
Si      -1.43392725      -1.14126111      -1.43565592       0.00000000
Si       0.43688151       1.82638593      -1.39420878       0.00000000
Si       1.57923405      -1.65185324       0.67197192       0.00000000
Si      -0.17194095       0.49342410       2.34138555       0.00000000
Si       0.01151703       3.22989975       0.36976469       0.00000000
Si       1.08597285      -1.37055915       2.93375702       0.00000000
Si       1.16211231       2.41157160       2.26360355       0.00000000
Si       0.66028257      -3.47902991      -0.40332040       0.00000000
Si      -0.31047111      -0.91020375      -3.50115041       0.00000000
Si      -1.68590097      -3.20823926      -0.33634622       0.00000000
