10
Lattice="16.28999089631971 0.0 0.0 0.0 16.28999089631971 0.0 0.0 0.0 34.31052061344573" Properties=species:S:1:pos:R:3:initial_magmoms:R:1 pbc="T T T"
Si      -1.84083516       0.35895178      -1.41270217       0.00000000
Si       1.68282216      -1.09099899      -1.23236597       0.00000000
Si       0.55519578       2.27975129       0.30248172       0.00000000
Si      -0.40200462      -1.53325620       1.77255111       0.00000000
Si       1.15395102      -0.13691908       3.08173837       0.00000000
Si       0.44794242       2.11180139       2.65762579       0.00000000
Si      -0.90865620      -0.36009452      -3.43733281       0.00000000
Si       0.32747787      -2.33255763      -2.82663951       0.00000000
Si       0.56088099      -3.58983612       0.89217697       0.00000000
Si      -2.75299371      -1.14355053       2.34008175       0.00000000
