10
Lattice="16.28999089631971 0.0 0.0 0.0 16.28999089631971 0.0 0.0 0.0 34.31052061344573" Properties=species:S:1:pos:R:3:initial_magmoms:R:1 pbc="T T T"
Si       0.85818978      -2.03400850       0.65608614       0.00000000
Si      -0.28012284       1.22390028       2.00315224       0.00000000
Si      -2.04436242      -0.58764546      -1.03851142       0.00000000
Si       1.53712440       1.01310768      -1.48931760       0.00000000
Si       0.37993167       3.00485340      -1.92756613       0.00000000
Si       1.06569180      -3.17691557      -1.41153561       0.00000000
Si      -0.88692534      -3.07676465       1.74901408       0.00000000
Si       3.35450196       1.49074677      -0.02875223       0.00000000
Si      -1.55110122      -0.86893955      -3.30029651       0.00000000
Si       2.58810633      -1.64170783       2.22716576       0.00000000
