10
Lattice="16.28999089631971 0.0 0.0 0.0 16.28999089631971 0.0 0.0 0.0 34.31052061344573" Properties=species:S:1:pos:R:3:initial_magmoms:R:1 pbc="T T T"
Si       1.32155883       1.18234449       1.55666374       0.00000000
Si      -1.22956920      -1.43240088       1.48419302       0.00000000
Si      -1.20464550       1.63734048      -1.31532885       0.00000000
Si       1.43523045      -1.49022386      -1.33262137       0.00000000
Si       2.28633408       0.58471326      -2.04161436       0.00000000
Si      -2.63946870      -0.08757504      -2.31146675       0.00000000
Si      -1.93346010      -2.33629551      -1.88735417       0.00000000
Si      -2.58168807       0.00920385       2.90234027       0.00000000
Si       2.78467776      -2.73410450       0.16997441       0.00000000
Si      -2.04931458      -3.39586946       0.20373599       0.00000000
