10
Lattice="16.28999089631971 0.0 0.0 0.0 16.28999089631971 0.0 0.0 0.0 34.31052061344573" Properties=species:S:1:pos:R:3:initial_magmoms:R:1 pbc="T T T"
Si      -2.23801794      -0.46074636       0.44277752       0.00000000
Si       0.84031965      -1.89988641      -1.08682066       0.00000000
Si       0.02555901       1.86611724      -1.44574322       0.00000000
Si       1.29485952       0.86249034       1.80343059       0.00000000
Si      -2.66338242       0.94276746       2.20675099       0.00000000
Si       1.62300528       1.12164795      -3.05960808       0.00000000
Si       0.51963471       3.09024558       1.91607209       0.00000000
Si       1.25116974       3.50000424      -0.26645565       0.00000000
Si      -2.25865737       2.44628559      -1.72571722       0.00000000
Si       2.74558176      -2.55363669       0.10619112       0.00000000
