10
Lattice="16.28999089631971 0.0 0.0 0.0 16.28999089631971 0.0 0.0 0.0 34.31052061344573" Properties=species:S:1:pos:R:3:initial_magmoms:R:1 pbc="T T T"
Si       1.22561073       1.63388700       1.17928756       0.00000000
Si      -0.02555901      -1.86611724       1.44574322       0.00000000
Si      -2.28421638       0.58016835      -0.27997400       0.00000000
Si       1.59744627      -0.74446929      -1.61386486       0.00000000
Si       0.87441462       3.49808202      -0.14135942       0.00000000
Si       0.49407570       1.22412834       3.36181531       0.00000000
Si       1.26930051      -1.00362690       3.24917381       0.00000000
Si      -2.64161898       2.22089715       1.36802984       0.00000000
Si      -2.26357695      -2.32686360       1.88852073       0.00000000
Si       3.48373053       1.03975812       1.20193252       0.00000000
