10
Lattice="16.28999089631971 0.0 0.0 0.0 16.28999089631971 0.0 0.0 0.0 34.31052061344573" Properties=species:S:1:pos:R:3:initial_magmoms:R:1 pbc="T T T"
Si       1.85227074      -1.43371548      -0.06944453       0.00000000
Si      -0.78812649       0.00827532      -2.25982939       0.00000000
Si      -1.54469925      -0.93600711       1.57042772       0.00000000
Si       0.33805008       2.28543813       0.64617040       0.00000000
Si       1.98988866       1.32142851      -2.09486432       0.00000000
Si      -3.30040287       0.03222162       0.28604697       0.00000000
Si      -2.97406530      -0.87702102      -1.82044862       0.00000000
Si       2.43432873       2.78309763      -0.29970257       0.00000000
Si       3.04080543      -0.74275884      -1.99608427       0.00000000
Si      -1.18431558       3.47649777      -0.63429895       0.00000000
