10
Lattice="16.28999089631971 0.0 0.0 0.0 16.28999089631971 0.0 0.0 0.0 34.31052061344573" Properties=species:S:1:pos:R:3:initial_magmoms:R:1 pbc="T T T"
Si       0.95537592      -0.27862416      -2.20438356       0.00000000
Si      -0.85058235      -2.20770225       0.54162618       0.00000000
Si       0.09255978       2.10536847       1.46430522       0.00000000
Si      -2.46034386      -0.86859909       2.11658156       0.00000000
Si      -0.79679277       0.40058739       3.31064598       0.00000000
Si       1.23686712      -2.62453077      -2.08910015       0.00000000
Si       2.79922473       1.06526826      -2.56834977       0.00000000
Si       0.44939223       3.87837207      -0.72951070       0.00000000
Si       2.64039723      -3.26032947      -0.18465933       0.00000000
Si       0.35406315      -3.84504273       1.85695503       0.00000000
