10
Lattice="16.28999089631971 0.0 0.0 0.0 16.28999089631971 0.0 0.0 0.0 34.31052061344573" Properties=species:S:1:pos:R:3:initial_magmoms:R:1 pbc="T T T"
Si      -1.40665779       1.13542929      -1.47651634       0.00000000
Si       1.34421822       1.36676358       1.35589077       0.00000000
Si      -1.36651923      -1.35078309       1.35688578       0.00000000
Si       1.42687368      -1.21029813      -1.46888911       0.00000000
Si       0.31547214       1.96656138      -2.84273943       0.00000000
Si      -0.23667741      -2.47948461      -2.66295353       0.00000000
Si      -2.11471893      -0.69797763      -2.93002544       0.00000000
Si       2.70811476      -2.70327663      -0.03363805       0.00000000
Si       2.70510111       0.00750969       2.71180900       0.00000000
Si      -0.01192428      -2.70884781       2.71596057       0.00000000
