10
Lattice="16.28999089631971 0.0 0.0 0.0 16.28999089631971 0.0 0.0 0.0 34.31052061344573" Properties=species:S:1:pos:R:3:initial_magmoms:R:1 pbc="T T T"
Si      -1.34421822      -1.36676358      -1.35589077       0.00000000
Si      -1.35439947       1.35521397       1.35917772       0.00000000
Si       1.36088289      -1.35925389       1.35591822       0.00000000
Si       1.35213516       1.36386396      -1.38031988       0.00000000
Si       0.08265546      -2.57706171      -2.82477988       0.00000000
Si      -2.70664866       2.71265967      -0.00006862       0.00000000
Si      -2.71091664      -0.00179190       2.71550767       0.00000000
Si      -2.71073745      -2.71754667       0.00099501       0.00000000
Si       0.00343719       2.71303434       2.71567922       0.00000000
Si       2.72041371       2.71018359      -0.00082345       0.00000000
