10
Lattice="16.28999089631971 0.0 0.0 0.0 16.28999089631971 0.0 0.0 0.0 34.31052061344573" Properties=species:S:1:pos:R:3:initial_magmoms:R:1 pbc="T T T"
Si      -0.92393622      -1.90454535      -0.83968184       0.00000000
Si      -1.03187376       2.02165416      -0.49173866       0.00000000
Si       1.99254393       0.55048797      -1.19441851       0.00000000
Si      -0.65570508      -0.17578539       2.29266458       0.00000000
Si       2.21157927       2.47435326       0.16517094       0.00000000
Si       0.11919393       3.30833610       1.20714772       0.00000000
Si       2.51849916      -2.33085465       0.83209921       0.00000000
Si      -0.25951599      -3.64400784       0.66713414       0.00000000
Si      -3.21396813       1.83010005       0.39014515       0.00000000
Si      -0.98823285       2.04924942       2.97156723       0.00000000
