10
Lattice="16.28999089631971 0.0 0.0 0.0 16.28999089631971 0.0 0.0 0.0 34.31052061344573" Properties=species:S:1:pos:R:3:initial_magmoms:R:1 pbc="T T T"
Si       0.92393622       1.90454535       0.83968184       0.00000000
Si       0.98981298      -0.58130865      -2.01289644       0.00000000
Si      -2.34305586       0.21838374      -0.08100718       0.00000000
Si       0.66442023      -1.73946249       1.50681598       0.00000000
Si       0.16658154      -2.74597272      -1.71041472       0.00000000
Si       0.26823114       1.72875996       3.13234642       0.00000000
Si      -1.52151858      -2.62475883       1.94619675       0.00000000
Si      -3.04585044      -1.93650633       0.31593145       0.00000000
Si      -2.81885092       1.50762321       1.74544578       0.00000000
Si       1.31717682      -3.56430087       0.18342415       0.00000000
