10
Lattice="16.28999089631971 0.0 0.0 0.0 16.28999089631971 0.0 0.0 0.0 34.31052061344573" Properties=species:S:1:pos:R:3:initial_magmoms:R:1 pbc="T T T"
Si       0.73153503       0.40975866      -2.18252775       0.00000000
Si       0.97013466       1.17115326       1.78840258       0.00000000
Si      -2.35978569       0.01718595      -0.01180283       0.00000000
Si       0.77522481      -2.22775524      -0.11264150       0.00000000
Si      -0.43311852       3.05352792       1.64635694       0.00000000
Si      -0.49407570      -1.22412834      -3.36181531       0.00000000
Si      -0.51963471      -3.09024558      -1.91607209       0.00000000
Si       0.09283671       0.17218530       3.67287466       0.00000000
Si       2.98965483      -0.18437022      -2.15988279       0.00000000
Si       3.08904012      -1.98219978      -0.56461424       0.00000000
