10
Lattice="16.28999089631971 0.0 0.0 0.0 16.28999089631971 0.0 0.0 0.0 34.31052061344573" Properties=species:S:1:pos:R:3:initial_magmoms:R:1 pbc="T T T"
Si      -2.09627865      -0.49765950       0.94587296       0.00000000
Si      -0.44444007      -1.46166912      -1.79516175       0.00000000
Si       0.26463105       2.29224735      -0.57312326       0.00000000
Si       1.51993845      -0.45038592       1.81392962       0.00000000
Si       2.64964995       2.30472549      -0.65721839       0.00000000
Si      -3.61864431       0.69340014      -0.33459638       0.00000000
Si      -2.43432873      -2.78309763       0.29970257       0.00000000
Si       0.43285788      -0.46270116      -3.67963384       0.00000000
Si       0.01151703       0.14287959       3.78915308       0.00000000
Si      -2.23471107       0.61551765       3.03634553       0.00000000
