10
Lattice="16.28999089631971 0.0 0.0 0.0 16.28999089631971 0.0 0.0 0.0 34.31052061344573" Properties=species:S:1:pos:R:3:initial_magmoms:R:1 pbc="T T T"
Si      -2.24622810       0.47263806      -0.75280755       0.00000000
Si       0.67940703       2.22622398       0.75345945       0.00000000
Si       1.50842142      -0.59326551      -1.97522347       0.00000000
Si      -0.35683245      -1.77300360       2.19381591       0.00000000
Si       2.92829040       1.73275101       1.02303736       0.00000000
Si      -2.35758654      -0.30092517       2.66630636       0.00000000
Si      -2.10779568      -0.64053909      -2.84328012       0.00000000
Si       3.38312349       0.65006874      -1.09766279       0.00000000
Si      -0.01151703      -0.14287959      -3.78915308       0.00000000
Si      -0.44939223      -3.87837207       0.72951070       0.00000000
