10
Lattice="16.28999089631971 0.0 0.0 0.0 16.28999089631971 0.0 0.0 0.0 34.31052061344573" Properties=species:S:1:pos:R:3:initial_magmoms:R:1 pbc="T T T"
Si       1.74511512       1.04275615      -1.09292793       0.00000000
Si       0.90951957      -1.85448618       1.08304650       0.00000000
Si      -1.68282216       1.09099899       1.23236597       0.00000000
Si      -1.35534429      -1.24155864      -1.59427354       0.00000000
Si       0.73704105      -2.07554148      -2.63625032       0.00000000
Si      -1.12194117      -2.49883713       2.12454293       0.00000000
Si      -2.59147836       0.73090446      -2.20496684       0.00000000
Si      -2.46277107      -2.50064532       0.17014597       0.00000000
Si       0.88692534       3.07676465      -1.74901408       0.00000000
Si       1.75303206      -3.12683292      -0.74728356       0.00000000
