10
Lattice="16.28999089631971 0.0 0.0 0.0 16.28999089631971 0.0 0.0 0.0 34.31052061344573" Properties=species:S:1:pos:R:3:initial_magmoms:R:1 pbc="T T T"
Si       1.53458316      -1.16225892       1.33993637       0.00000000
Si      -1.32155883      -1.18234449      -1.55666374       0.00000000
Si      -1.19117367       1.57030713       1.33227826       0.00000000
Si      -2.55112803      -2.61474537      -0.07247072       0.00000000
Si       0.16632090      -2.50926925       2.72434607       0.00000000
Si      -2.55340863       0.21315465       2.71878776       0.00000000
Si       0.96477525      -0.59763123      -3.59827810       0.00000000
Si      -2.52620433       0.45499599      -2.87199259       0.00000000
Si       0.11367162      -2.67256835      -2.88928511       0.00000000
Si      -2.47241475       3.06328563      -0.10297279       0.00000000
