10
Lattice="16.28999089631971 0.0 0.0 0.0 16.28999089631971 0.0 0.0 0.0 34.31052061344573" Properties=species:S:1:pos:R:3:initial_magmoms:R:1 pbc="T T T"
Si       1.72278153      -0.82456722      -1.34333312       0.00000000
Si      -1.31944113      -1.38158748       1.36670546       0.00000000
Si       1.38087072       1.34798121       1.37655258       0.00000000
Si      -1.44782262       1.33481889      -1.51345850       0.00000000
Si       1.50244299       0.53890578      -3.27075655       0.00000000
Si       0.33290244       2.50150869      -2.63659686       0.00000000
Si      -2.69045640       2.70457983      -0.01183027       0.00000000
Si      -2.68170867      -0.01853802       2.72440783       0.00000000
Si      -2.67869502      -2.72932434      -0.02103922       0.00000000
Si       0.03440448       2.69589726       2.72979458       0.00000000
