10
Lattice="16.28999089631971 0.0 0.0 0.0 16.28999089631971 0.0 0.0 0.0 34.31052061344573" Properties=species:S:1:pos:R:3:initial_magmoms:R:1 pbc="T T T"
Si       1.48185243      -1.25320599      -1.34065003       0.00000000
Si      -1.23106788       1.50790014      -1.34291453       0.00000000
Si       1.90205298       0.88606197       1.14442805       0.00000000
Si      -1.82175957      -0.79182432       1.42306395       0.00000000
Si       0.87615765       1.23114933       3.28839075       0.00000000
Si      -2.59400331      -2.59949304       0.08344323       0.00000000
Si      -3.31130088       1.11146670       1.27789605       0.00000000
Si      -2.58677055       0.13074354      -2.70727314       0.00000000
Si       0.13331736      -2.58533703      -2.71427249       0.00000000
Si       2.84895810      -2.61680931       0.13134075       0.00000000
