10
Lattice="16.28999089631971 0.0 0.0 0.0 16.28999089631971 0.0 0.0 0.0 34.31052061344573" Properties=species:S:1:pos:R:3:initial_magmoms:R:1 pbc="T T T"
Si      -0.11836314       1.47268116      -1.83681273       0.00000000
Si       1.16954055      -1.96260291      -0.63415969       0.00000000
Si       1.19417103       1.61846037       1.26453896       0.00000000
Si      -1.78072506      -1.16668980       1.12313836       0.00000000
Si       2.40951906       0.20852829       2.66574366       0.00000000
Si      -0.33290244      -2.50150869       2.63659686       0.00000000
Si      -2.36724651       1.96615413      -2.10639064       0.00000000
Si       1.38987909      -3.32607591       1.29326375       0.00000000
Si      -0.28773027       2.89758375       2.64441623       0.00000000
Si       3.35402955      -1.54588842       1.46736915       0.00000000
