10
Lattice="16.28999089631971 0.0 0.0 0.0 16.28999089631971 0.0 0.0 0.0 34.31052061344573" Properties=species:S:1:pos:R:3:initial_magmoms:R:1 pbc="T T T"
Si       1.69439458       1.61534084       0.08587928       0.00000000
Si      -1.82689159       0.02000901      -1.47727460       0.00000000
Si       0.80564476      -2.25083721      -0.37360747       0.00000000
Si      -1.23216697      -1.37702791       2.22781766       0.00000000
Si      -1.00947664      -2.15202207      -1.87637480       0.00000000
Si       0.89315464       1.69682341       2.35263940       0.00000000
Si      -0.32344284      -3.35738433       1.35735926       0.00000000
Si       0.00487071      -0.18162210       3.80270373       0.00000000
Si      -1.26208551       1.22454373      -3.43129415       0.00000000
Si       2.26045579       2.59265939      -2.28350367       0.00000000
