10
Lattice="16.28999089631971 0.0 0.0 0.0 16.28999089631971 0.0 0.0 0.0 34.31052061344573" Properties=species:S:1:pos:R:3:initial_magmoms:R:1 pbc="T T T"
Si       0.70876161       1.54785951      -1.58645074       0.00000000
Si      -2.36607363       0.16459416      -0.22596922       0.00000000
Si       1.01631681       0.95488722       1.98441869       0.00000000
Si       0.83083887      -2.22610995      -0.53733736       0.00000000
Si       2.99836998       1.75760955      -1.10946561       0.00000000
Si       0.11313405      -3.34000386       1.56534976       0.00000000
Si      -3.24337158      -0.83437380       1.65850287       0.00000000
Si       3.03080337       2.06154837       1.24156119       0.00000000
Si      -0.24716817      -2.98875888      -2.57898603       0.00000000
Si      -3.33620829      -1.00655910      -2.01437179       0.00000000
