10
Lattice="16.28999089631971 0.0 0.0 0.0 16.28999089631971 0.0 0.0 0.0 34.31052061344573" Properties=species:S:1:pos:R:3:initial_magmoms:R:1 pbc="T T T"
Si       1.35658233      -1.35500220       1.36212843       0.00000000
Si       1.36735002       1.34819298      -1.35984678       0.00000000
Si      -1.35915615       1.35984033       1.35890324       0.00000000
Si      -1.36827855      -1.34631963      -1.37949642       0.00000000
Si      -0.01197315       2.70013266      -2.69215935       0.00000000
Si       2.70304857      -2.70291825       0.00888643       0.00000000
Si      -0.00148239      -2.71132389       2.71694871       0.00000000
Si       2.71246419       0.00294849       2.71715458       0.00000000
Si       2.71308321       2.71749780       0.00030879       0.00000000
Si      -2.72041371      -2.71018359       0.00082345       0.00000000
