10
Lattice="16.28999089631971 0.0 0.0 0.0 16.28999089631971 0.0 0.0 0.0 34.31052061344573" Properties=species:S:1:pos:R:3:initial_magmoms:R:1 pbc="T T T"
Si       0.30942855      -0.87509880      -2.15686346       0.00000000
Si      -2.21824188       0.78728008       0.37467109       0.00000000
Si       1.59583356       1.61750156       0.75833155       0.00000000
Si       0.05453892      -2.56637547       0.13789406       0.00000000
Si       3.31066557      -0.04973337       0.46912801       0.00000000
Si      -3.32680896      -1.40787954       0.45488914       0.00000000
Si      -2.06371494       1.37017701       2.78306512       0.00000000
Si       1.56307437       0.70247190      -3.34531194       0.00000000
Si      -2.10199644      -3.04249959      -1.05463737       0.00000000
Si      -0.10753029       0.73481227       3.91208775       0.00000000
