10
Lattice="16.28999089631971 0.0 0.0 0.0 16.28999089631971 0.0 0.0 0.0 34.31052061344573" Properties=species:S:1:pos:R:3:initial_magmoms:R:1 pbc="T T T"
Si       0.23889285       1.67619213       1.58003467       0.00000000
Si      -1.06759773       0.72247779      -1.92533594       0.00000000
Si       2.30570289      -0.40366620       0.00157828       0.00000000
Si      -1.11882978      -1.83415626       0.96714550       0.00000000
Si       2.06125515      -2.70462870      -0.58773955       0.00000000
Si      -0.56674539      -1.32574536       3.20635425       0.00000000
Si       1.09200015       0.32540904       3.37677470       0.00000000
Si       2.92438080       0.46543788      -2.12107757       0.00000000
Si      -3.30426360       1.18004760      -1.36202550       0.00000000
Si       0.04676859      -3.81128985       0.15511795       0.00000000
