10
Lattice="16.28999089631971 0.0 0.0 0.0 16.28999089631971 0.0 0.0 0.0 34.31052061344573" Properties=species:S:1:pos:R:3:initial_magmoms:R:1 pbc="T T T"
Si      -0.26463105      -2.29224735       0.57312326       0.00000000
Si      -0.84351249       1.27234674       1.83033006       0.00000000
Si       2.38501890       0.01247814      -0.08409513       0.00000000
Si      -1.01599101       1.05129144      -1.88896677       0.00000000
Si      -1.23502635      -0.87257385      -3.24855622       0.00000000
Si      -1.75303206       3.12683292       0.74728356       0.00000000
Si       2.93710329       0.52088904       2.15511363       0.00000000
Si       1.01514393       1.50252444       3.22484763       0.00000000
Si      -3.10837635       1.88527428      -0.84698999       0.00000000
Si       1.25530740      -2.74263327       2.38705287       0.00000000
