10
Lattice="16.28999089631971 0.0 0.0 0.0 16.28999089631971 0.0 0.0 0.0 34.31052061344573" Properties=species:S:1:pos:R:3:initial_magmoms:R:1 pbc="T T T"
Si       2.24888337      -0.49347297       0.26957791       0.00000000
Si       0.58885092       1.42566822      -1.89088816       0.00000000
Si      -0.67940703      -2.22622398      -0.75345945       0.00000000
Si      -0.99963585       1.17304290       1.95422541       0.00000000
Si       2.70371646      -1.57615524      -1.85112224       0.00000000
Si       3.12857595       1.81988622       0.74162232       0.00000000
Si      -1.26980550       1.19549052      -3.28540574       0.00000000
Si      -2.92563513      -1.75358592      -1.50626701       0.00000000
Si       2.36724651      -1.96615413       2.10639064       0.00000000
Si       2.51081028       0.44403282      -2.96062217       0.00000000
