10
Lattice="16.28999089631971 0.0 0.0 0.0 16.28999089631971 0.0 0.0 0.0 34.31052061344573" Properties=species:S:1:pos:R:3:initial_magmoms:R:1 pbc="T T T"
Si      -1.30974858      -1.32287832       1.41551361       0.00000000
Si      -1.34944731       1.24388064      -1.50259578       0.00000000
Si       1.54619793       1.37517315       1.24763900       0.00000000
Si       1.11863430      -1.78636140      -1.26135837       0.00000000
Si       1.45635858      -0.19447002      -2.97534139       0.00000000
Si      -0.85379148       0.11811702      -3.61945315       0.00000000
Si      -2.64930786       0.05365926       2.75772820       0.00000000
Si       0.06957459      -2.67481800       2.74782618       0.00000000
Si      -3.00957750      -2.43320472      -0.04875528       0.00000000
Si       0.07146423       2.75419007       2.72662570       0.00000000
