10
Lattice="16.28999089631971 0.0 0.0 0.0 16.28999089631971 0.0 0.0 0.0 34.31052061344573" Properties=species:S:1:pos:R:3:initial_magmoms:R:1 pbc="T T T"
Si      -1.23685083       0.10671579       2.03111533       0.00000000
Si       1.21150359       1.59958026      -1.35399683       0.00000000
Si       1.88227692      -1.06295508       1.09450622       0.00000000
Si      -1.60573788      -1.20847365      -1.38796427       0.00000000
Si      -0.17861985       1.70851149       3.30777621       0.00000000
Si      -0.15216489      -2.44312696      -2.82125276       0.00000000
Si       2.56251474       0.28372293      -2.82859521       0.00000000
Si       3.50995743       0.60318612       1.51954519       0.00000000
Si      -3.26063898      -2.26538840       0.13610991       0.00000000
Si      -2.85579990       0.28199619      -2.81819912       0.00000000
