10
Lattice="16.28999089631971 0.0 0.0 0.0 16.28999089631971 0.0 0.0 0.0 34.31052061344573" Properties=species:S:1:pos:R:3:initial_magmoms:R:1 pbc="T T T"
Si      -1.78906554      -1.46615701      -0.31778422       0.00000000
Si      -0.21331755       0.96501960       2.15792709       0.00000000
Si       1.84221981      -1.49083148      -0.17467496       0.00000000
Si       0.06983523       1.31942484      -2.03001740       0.00000000
Si       0.45607113      -0.77058053      -3.33042117       0.00000000
Si      -1.24067898      -2.18576386      -2.49592022       0.00000000
Si      -3.61717821       0.00345348      -0.59919927       0.00000000
Si       3.43605037      -0.77892101       1.36302050       0.00000000
Si       2.57443902      -1.29158849      -2.46349676       0.00000000
Si       0.25301628      -0.70041299       3.79618674       0.00000000
