10
Lattice="16.28999089631971 0.0 0.0 0.0 16.28999089631971 0.0 0.0 0.0 34.31052061344573" Properties=species:S:1:pos:R:3:initial_magmoms:R:1 pbc="T T T"
Si       1.35622606      -1.35698958       1.35612409       0.00000000
Si       1.35558566       1.35814617      -1.35564374       0.00000000
Si      -1.35868374       1.35716877       1.35660443       0.00000000
Si      -1.35692442      -1.35871632      -1.35907479       0.00000000
Si       0.00977400       2.70370017      -2.71440973       0.00000000
Si      -0.00267156      -2.71285678      -2.71224817       0.00000000
Si       2.71422744       2.71319724      -0.00072052       0.00000000
Si       2.71334778      -2.71479040      -0.00041173       0.00000000
Si       2.71259844       0.00236205      -2.71609095       0.00000000
Si      -0.00179190       2.71485882       2.71410094       0.00000000
