10
Lattice="16.28999089631971 0.0 0.0 0.0 16.28999089631971 0.0 0.0 0.0 34.31052061344573" Properties=species:S:1:pos:R:3:initial_magmoms:R:1 pbc="T T T"
Si       1.35862672      -1.35767376       1.35279596       0.00000000
Si      -1.35732861      -1.35443205      -1.35931497       0.00000000
Si       1.35729095       1.35997065      -1.35938359       0.00000000
Si      -1.35928551       1.36111095       1.35866307       0.00000000
Si       0.01482553      -2.70931045       2.71701734       0.00000000
Si      -2.71446690      -2.71306692      -0.00048035       0.00000000
Si       2.71599097      -2.71195105      -0.00144104       0.00000000
Si      -0.00020688      -2.71223287      -2.71585078       0.00000000
Si      -2.71355466       0.00255753      -2.71543905       0.00000000
Si       2.71460633       2.71490769       0.00010293       0.00000000
