10
Lattice="16.28999089631971 0.0 0.0 0.0 16.28999089631971 0.0 0.0 0.0 34.31052061344573" Properties=species:S:1:pos:R:3:initial_magmoms:R:1 pbc="T T T"
Si       2.12781609      -0.27956898      -0.96114115       0.00000000
Si      -0.55583109      -2.28843549      -0.12540502       0.00000000
Si       0.23174154       0.39589587       2.37151020       0.00000000
Si      -1.41271767       1.61440416      -1.14020786       0.00000000
Si      -2.84438061      -2.07990720      -0.65196888       0.00000000
Si      -1.03617432       2.53034199       2.33064635       0.00000000
Si       3.11351945       1.78344549      -0.27873883       0.00000000
Si      -0.66627729      -1.66200354       3.15447672       0.00000000
Si       1.60205634      -0.41963040      -3.26636339       0.00000000
Si      -2.85081516       2.36203371       0.58612695       0.00000000
