10
Lattice="16.28999089631971 0.0 0.0 0.0 16.28999089631971 0.0 0.0 0.0 34.31052061344573" Properties=species:S:1:pos:R:3:initial_magmoms:R:1 pbc="T T T"
Si      -1.35689184       1.35627282       1.35763375       0.00000000
Si       1.35794636      -1.35780408       1.35739358       0.00000000
Si       1.35794499       1.35731538      -1.35869738       0.00000000
Si      -1.35646830      -1.35803214      -1.35972669       0.00000000
Si       2.71357258       0.00032580       2.71368921       0.00000000
Si       0.00115659       2.71246419       2.71495870       0.00000000
Si       0.00371412       2.71204065      -2.71691440       0.00000000
Si      -2.71505430      -0.00076563       2.71403232       0.00000000
Si      -2.71534752       2.71451673       0.00075483       0.00000000
Si      -2.71464705      -2.71539639       0.00072052       0.00000000
