10
Lattice="16.28999089631971 0.0 0.0 0.0 16.28999089631971 0.0 0.0 0.0 34.31052061344573" Properties=species:S:1:pos:R:3:initial_magmoms:R:1 pbc="T T T"
Si      -1.35668007       1.32603858       1.35169803       0.00000000
Si      -1.36363590      -1.34615673      -1.34339487       0.00000000
Si       1.35371529       1.36407573      -1.34706610       0.00000000
Si       1.27490427      -1.37057544       1.42354430       0.00000000
Si      -2.30716899      -0.59399856       2.50854650       0.00000000
Si       0.39998466       2.19936177       2.65793459       0.00000000
Si       2.14113221       0.46261971       2.71917890       0.00000000
Si      -0.47833956      -2.22500223       2.75091615       0.00000000
Si       2.70262407      -2.70529659       0.02164995       0.00000000
Si      -0.00759114      -2.70594819      -2.70284708       0.00000000
