10
Lattice="16.28999089631971 0.0 0.0 0.0 16.28999089631971 0.0 0.0 0.0 34.31052061344573" Properties=species:S:1:pos:R:3:initial_magmoms:R:1 pbc="T T T"
Si       1.35668007      -1.32603858      -1.35169803       0.00000000
Si       1.75666473       0.87332319       1.30623656       0.00000000
Si      -1.38064266       1.40080968      -1.32102440       0.00000000
Si      -0.95048892      -1.92003714       1.15684847       0.00000000
Si       0.71390925       1.02012867       3.44124421       0.00000000
Si       2.63158434      -2.69661402       0.07184627       0.00000000
Si      -0.00695583      -2.67219531      -2.69509290       0.00000000
Si       2.69016318       2.70692559       0.03743280       0.00000000
Si       2.71039536       0.03803715      -2.69876413       0.00000000
Si      -2.71953405       0.03648960      -2.69800930       0.00000000
