10
Lattice="16.28999089631971 0.0 0.0 0.0 16.28999089631971 0.0 0.0 0.0 34.31052061344573" Properties=species:S:1:pos:R:3:initial_magmoms:R:1 pbc="T T T"
Si       0.37949184       1.76436990       1.48729328       0.00000000
Si       2.20314498      -0.76481550      -0.43979250       0.00000000
Si      -1.30160358      -1.80698454       0.82221778       0.00000000
Si      -1.10079675       0.01699047      -2.12282741       0.00000000
Si      -1.29961620       1.70623089       3.05984825       0.00000000
Si       2.02432639       1.06984575       2.98278678       0.00000000
Si      -0.42583689      -2.27242242       2.98422782       0.00000000
Si       1.13765517       3.64711923       0.35017337       0.00000000
Si       2.98536146      -2.09875473       1.31587782       0.00000000
Si       2.00297672      -2.68925094      -2.01667060       0.00000000
