10
Lattice="16.28999089631971 0.0 0.0 0.0 16.28999089631971 0.0 0.0 0.0 34.31052061344573" Properties=species:S:1:pos:R:3:initial_magmoms:R:1 pbc="T T T"
Si      -2.28960837      -0.20975004      -0.47698512       0.00000000
Si       0.19948734       2.13620544      -0.98409490       0.00000000
Si       0.03243339       0.30393882       2.35102681       0.00000000
Si       1.07326665      -1.84244787      -1.05971533       0.00000000
Si       0.19749996      -1.37700999      -3.22172538       0.00000000
Si       3.32957730      -0.90984537      -0.85529314       0.00000000
Si      -2.07778950      -0.93949317      -2.73430985       0.00000000
Si      -2.99836998      -1.75760955       1.10946561       0.00000000
Si       0.89555904       3.47400540       0.81768878       0.00000000
Si      -1.98205317      -0.80272233       3.09388430       0.00000000
