10
Lattice="16.28999089631971 0.0 0.0 0.0 16.28999089631971 0.0 0.0 0.0 34.31052061344573" Properties=species:S:1:pos:R:3:initial_magmoms:R:1 pbc="T T T"
Si       1.64555064      -0.88405830       1.39997295       0.00000000
Si      -0.03243339      -0.30393882      -2.35102681       0.00000000
Si       0.24444774       2.30096250       0.58931783       0.00000000
Si      -2.01448656      -1.10666115       0.74285750       0.00000000
Si      -2.06125515       2.70462870       0.58773955       0.00000000
Si       0.86312565       3.17006658      -1.53333802       0.00000000
Si      -3.18008493       0.87047244       1.55488504       0.00000000
Si      -1.01392218      -2.77806402       2.19573730       0.00000000
Si      -2.32204176      -0.51368886      -2.82801193       0.00000000
Si       0.16705395       1.83226662      -3.33512171       0.00000000
