10
Lattice="16.28999089631971 0.0 0.0 0.0 16.28999089631971 0.0 0.0 0.0 34.31052061344573" Properties=species:S:1:pos:R:3:initial_magmoms:R:1 pbc="T T T"
Si      -1.35637276       1.36013647      -1.35310476       0.00000000
Si      -1.35441796      -1.35686189       1.35849151       0.00000000
Si       1.35964658       1.35820285       1.35873169       0.00000000
Si       1.36303978      -1.36127648      -1.35965807       0.00000000
Si      -2.70384898      -0.00016553      -2.71545964       0.00000000
Si      -2.71062562       2.71427693       0.00006862       0.00000000
Si      -2.71264558       0.00070247       2.71585078       0.00000000
Si      -2.71329718      -2.71569224       0.00020586       0.00000000
Si       0.00308157      -2.71453565       2.71578216       0.00000000
Si       0.00252485       2.71600367       2.71526750       0.00000000
