10
Lattice="16.28999089631971 0.0 0.0 0.0 16.28999089631971 0.0 0.0 0.0 34.31052061344573" Properties=species:S:1:pos:R:3:initial_magmoms:R:1 pbc="T T T"
Si       1.32642954       1.26353385       1.46554040       0.00000000
Si      -1.30762273       1.34333856      -1.41119250       0.00000000
Si      -1.31182230      -1.39165470       1.40494798       0.00000000
Si       1.40268303      -1.37704257      -1.39300792       0.00000000
Si       1.13168259      -1.00383867       2.42287308       0.00000000
Si      -2.55363930      -2.63855646      -0.12588537       0.00000000
Si       2.77488747       2.62946664       0.09943194       0.00000000
Si      -2.73534254       2.67805971      -0.00929816       0.00000000
Si      -2.66177690      -0.01361844      -2.77568836       0.00000000
Si       0.05290992       2.70475902      -2.77400714       0.00000000
