10
Lattice="16.28999089631971 0.0 0.0 0.0 16.28999089631971 0.0 0.0 0.0 34.31052061344573" Properties=species:S:1:pos:R:3:initial_magmoms:R:1 pbc="T T T"
Si      -1.21907844       1.42558500       1.36857881       0.00000000
Si      -1.35806472      -1.35096228      -1.35392821       0.00000000
Si       1.35982101       1.35962814      -1.35581529       0.00000000
Si       1.33957557      -1.40059791       1.37643592       0.00000000
Si      -2.47272426      -0.15198570       2.55702729       0.00000000
Si       0.54519372       2.50729394       2.60986552       0.00000000
Si      -0.00022806      -2.71143792      -2.71574785       0.00000000
Si      -2.71682991       0.00392589      -2.71567922       0.00000000
Si       2.71642496       0.00597843      -2.71633112       0.00000000
Si      -0.00061902       2.71999736      -2.71468422       0.00000000
