10
Lattice="16.28999089631971 0.0 0.0 0.0 16.28999089631971 0.0 0.0 0.0 34.31052061344573" Properties=species:S:1:pos:R:3:initial_magmoms:R:1 pbc="T T T"
Si       1.67910804       0.05813901      -1.57255497       0.00000000
Si      -1.95139539       0.51992793      -1.16570059       0.00000000
Si       0.69607170       1.33779996       1.80178369       0.00000000
Si      -0.19948734      -2.13620544       0.98409490       0.00000000
Si       3.32394259      -0.63638514      -0.07706147       0.00000000
Si      -2.48909571      -2.34595548       0.50710978       0.00000000
Si      -3.50915922      -0.17707230       0.45066894       0.00000000
Si       3.00041505       0.77224374       1.80075437       0.00000000
Si       1.29961620      -1.70623089      -3.05984825       0.00000000
Si      -2.05418529       2.85607978      -1.33694449       0.00000000
