10
Lattice="16.28999089631971 0.0 0.0 0.0 16.28999089631971 0.0 0.0 0.0 34.31052061344573" Properties=species:S:1:pos:R:3:initial_magmoms:R:1 pbc="T T T"
Si      -2.30570289       0.40366620      -0.00157828       0.00000000
Si       0.61867791       0.86910408      -2.12265585       0.00000000
Si      -0.24444774      -2.30096250      -0.58931783       0.00000000
Si      -2.06681004       2.07985833       1.57845638       0.00000000
Si       1.40110290      -3.18502080       0.81065512       0.00000000
Si       2.92302126       0.30354786      -2.12368517       0.00000000
Si      -1.21370274       0.72907524       3.37519642       0.00000000
Si       2.11059756      -1.59870060       2.54416084       0.00000000
Si      -3.42453267      -1.43049006       0.96556721       0.00000000
Si       1.67762565       3.38685946       0.74697476       0.00000000
