10
Lattice="16.28999089631971 0.0 0.0 0.0 16.28999089631971 0.0 0.0 0.0 34.31052061344573" Properties=species:S:1:pos:R:3:initial_magmoms:R:1 pbc="T T T"
Si       1.40665779      -1.13542929       1.47651634       0.00000000
Si       1.72212993       0.83113209      -1.36622309       0.00000000
Si      -0.70806114      -1.83340692      -1.45350910       0.00000000
Si      -1.32168915       1.57198500       1.44837826       0.00000000
Si       0.09910836       0.74575620      -3.24554860       0.00000000
Si      -2.53988467      -2.61081459      -0.12753914       0.00000000
Si       2.83353147      -2.34572742       0.00762723       0.00000000
Si       0.04013856      -2.48621238       2.83340212       0.00000000
Si      -2.67013625       0.22985190       2.82894175       0.00000000
Si       2.65259844       2.85635376       0.00064161       0.00000000
