10
Lattice="16.28999089631971 0.0 0.0 0.0 16.28999089631971 0.0 0.0 0.0 34.31052061344573" Properties=species:S:1:pos:R:3:initial_magmoms:R:1 pbc="T T T"
Si      -1.34844710      -1.34213310       1.38056348       0.00000000
Si      -1.51119561       1.14873822      -1.41922803       0.00000000
Si       1.36591650       1.37200896       1.38396023       0.00000000
Si       1.32168915      -1.57198500      -1.44837826       0.00000000
Si       0.01534518       2.24500635      -2.95788217       0.00000000
Si      -2.69504544      -0.79094466      -2.45437393       0.00000000
Si       2.71145421       2.70730026       0.01605047       0.00000000
Si      -2.69302112      -2.72826549       0.01223857       0.00000000
Si      -2.70328382       2.72471427       0.01356639       0.00000000
Si       2.72834694      -2.70741429       0.02813807       0.00000000
