10
Lattice="16.28999089631971 0.0 0.0 0.0 16.28999089631971 0.0 0.0 0.0 34.31052061344573" Properties=species:S:1:pos:R:3:initial_magmoms:R:1 pbc="T T T"
Si      -1.35687881      -1.35734796       1.35687892       0.00000000
Si       1.35824391      -1.35624024      -1.35804548       0.00000000
Si       1.35806472       1.35951453       1.35646719       0.00000000
Si      -1.35203090       1.35982404      -1.36250585       0.00000000
Si      -0.00294849      -2.70896184      -2.71395684       0.00000000
Si      -0.00026064      -2.71313208       2.71365490       0.00000000
Si       2.71283886      -2.71430496       0.00102932       0.00000000
Si      -2.69660492      -0.02630835      -2.73083076       0.00000000
Si      -2.71552058      -2.71239903       0.00195570       0.00000000
Si      -2.71483775       0.00211770       2.71392939       0.00000000
