10
Lattice="16.28999089631971 0.0 0.0 0.0 16.28999089631971 0.0 0.0 0.0 34.31052061344573" Properties=species:S:1:pos:R:3:initial_magmoms:R:1 pbc="T T T"
Si      -1.35423087       1.35472527      -1.35821703       0.00000000
Si      -1.35794499      -1.35731538       1.35869738       0.00000000
Si       1.35796194       1.35723393       1.35907479       0.00000000
Si       1.36280822      -1.35741312      -1.36034428       0.00000000
Si      -2.72115735       0.01339038      -2.69622172       0.00000000
Si      -2.71586310       2.71352304       0.00082345       0.00000000
Si       2.71498573       2.71441899       0.00150966       0.00000000
Si      -2.71441329      -2.71534752      -0.00102932       0.00000000
Si       0.00051565       2.71467963       2.71639975       0.00000000
Si       2.71493686      -0.00034209       2.71615957       0.00000000
