10
Lattice="16.28999089631971 0.0 0.0 0.0 16.28999089631971 0.0 0.0 0.0 34.31052061344573" Properties=species:S:1:pos:R:3:initial_magmoms:R:1 pbc="T T T"
Si       1.37331216       1.34425080       1.34806111       0.00000000
Si      -1.35433920       1.35715248      -1.35632995       0.00000000
Si       1.35760860      -1.35677781      -1.35581529       0.00000000
Si      -1.34967211      -1.36614456       1.36175101       0.00000000
Si       0.06919992       2.68154577       2.70147466       0.00000000
Si      -2.71094314       2.71080219       0.00418589       0.00000000
Si      -2.71368817      -0.00073305      -2.71300300       0.00000000
Si       0.00153126       2.71383250      -2.71327749       0.00000000
Si       0.00073305      -2.71575477      -2.71324318       0.00000000
Si      -2.71095641      -2.71831230       0.00024017       0.00000000
