10
Lattice="16.28999089631971 0.0 0.0 0.0 16.28999089631971 0.0 0.0 0.0 34.31052061344573" Properties=species:S:1:pos:R:3:initial_magmoms:R:1 pbc="T T T"
Si      -1.38151647       1.31672070       1.37468609       0.00000000
Si      -1.36128429      -1.35216774      -1.36151084       0.00000000
Si       1.34967211       1.36614456      -1.36175101       0.00000000
Si       1.32825076      -1.26270306       1.54404291       0.00000000
Si       0.38859469       2.35473579       2.59555802       0.00000000
Si      -2.31501492      -0.51688170       2.64348985       0.00000000
Si      -0.57386738      -2.25362376       2.70473416       0.00000000
Si       2.03220682       0.57805065       2.89035418       0.00000000
Si       2.71461121      -2.70552465       0.04141282       0.00000000
Si       2.70728071       0.00936675      -2.71756630       0.00000000
