10
Lattice="16.28999089631971 0.0 0.0 0.0 16.28999089631971 0.0 0.0 0.0 34.31052061344573" Properties=species:S:1:pos:R:3:initial_magmoms:R:1 pbc="T T T"
Si       1.82577343       1.13588541      -0.89468164       0.00000000
Si      -1.64483455       0.69452415      -1.49549350       0.00000000
Si      -0.32352754       1.40862888       1.87781584       0.00000000
Si      -0.19385263      -2.40966567       0.20586324       0.00000000
Si      -3.32394259       0.63638514       0.07706147       0.00000000
Si       0.79235212       0.06915105       3.38717080       0.00000000
Si       0.96103507      -3.16860048      -1.66690895       0.00000000
Si      -2.02432639      -1.06984575      -2.98278678       0.00000000
Si       1.55154757       3.44038481      -0.25918182       0.00000000
Si      -2.62787089       1.97418510       1.87884516       0.00000000
