10
Lattice="16.28999089631971 0.0 0.0 0.0 16.28999089631971 0.0 0.0 0.0 34.31052061344573" Properties=species:S:1:pos:R:3:initial_magmoms:R:1 pbc="T T T"
Si       1.11587966      -1.33947783       1.50935496       0.00000000
Si       0.32352754      -1.40862888      -1.87781584       0.00000000
Si      -2.30434335       0.56555622       0.00102932       0.00000000
Si       1.37130686       2.00018819       0.16400438       0.00000000
Si       1.87507511       2.03175593      -2.13699766       0.00000000
Si      -1.97170155       2.77876842      -0.81645360       0.00000000
Si       2.14930097      -0.27274347      -2.77249748       0.00000000
Si       3.29797403      -1.14792372       0.62747115       0.00000000
Si      -3.00041505      -0.77224374      -1.80075437       0.00000000
Si      -0.37787099       3.49067889       0.72124186       0.00000000
