10
Lattice="10.86 0.0 0.0 0.0 10.86 0.0 0.0 0.0 10.86" Properties=species:S:1:pos:R:3:initial_magmoms:R:1 pbc="T T T"
Si       0.48009888      -1.29639078      -1.80369396       0.00000000
Si       1.48633218       0.34364298       2.15373348       0.00000000
Si       0.83759922       1.65617172      -1.95758016       0.00000000
Si      -2.23490112      -1.29639078       0.91130604       0.00000000
Si      -2.23490112       1.41860922      -1.80369396       0.00000000
Si       1.83759888      -2.65389078      -0.44619396       0.00000000
Si      -0.85896084       2.78313564       2.02944078       0.00000000
Si       3.19509888      -1.29639078       0.91130604       0.00000000
Si      -0.87740112      -2.65389078       2.26880604       0.00000000
Si       0.48009888      -1.29639078       3.62630604       0.00000000
