10
Lattice="10.86 0.0 0.0 0.0 10.86 0.0 0.0 0.0 10.86" Properties=species:S:1:pos:R:3:initial_magmoms:R:1 pbc="T T T"
Si      -1.00623330      -1.64003376       1.47257256       0.00000000
Si       1.70876670       1.07496624       1.47257256       0.00000000
Si      -1.48633218      -0.34364298      -2.15373348       0.00000000
Si       1.70876670      -1.64003376      -1.24242744       0.00000000
Si      -2.34529302       2.43949266      -0.12429270       0.00000000
Si      -2.36373330      -0.28253376       2.83007256       0.00000000
Si       0.35126670       2.43246624       2.83007256       0.00000000
Si      -2.36373330      -2.99753376       0.11507256       0.00000000
Si       3.14589222       2.39376120       0.31789392       0.00000000
Si       0.35126670      -2.99753376      -2.59992744       0.00000000
