10
Lattice="10.86 0.0 0.0 0.0 10.86 0.0 0.0 0.0 10.86" Properties=species:S:1:pos:R:3:initial_magmoms:R:1 pbc="T T T"
Si      -1.56424182       1.46461218      -1.09802202       0.00000000
Si       1.15075818       1.46461218       1.61697798       0.00000000
Si      -1.56424182      -1.25038782       1.61697798       0.00000000
Si       2.36233236       0.34331718      -2.49419448       0.00000000
Si       2.58788370      -2.64659286       0.46229934       0.00000000
Si      -0.20674182       2.82211218      -2.45552202       0.00000000
Si       2.50825818       2.82211218       0.25947798       0.00000000
Si      -2.97100278       0.02038422      -2.37865494       0.00000000
Si       2.50825818       0.10711218       2.97447798       0.00000000
Si      -2.90330154      -2.60086140       0.02011272       0.00000000
