10
Lattice="10.86 0.0 0.0 0.0 10.86 0.0 0.0 0.0 10.86" Properties=species:S:1:pos:R:3:initial_magmoms:R:1 pbc="T T T"
Si       0.00045612       2.40468636       0.23469546       0.00000000
Si       2.36512338      -0.56463312      -0.28654110       0.00000000
Si      -1.97832276       1.34535852      -0.96929844       0.00000000
Si      -0.35750034      -0.23756250      -2.56111380       0.00000000
Si      -0.83759922      -1.65617172       1.95758016       0.00000000
Si      -0.35750034      -2.95256250       0.15388620       0.00000000
Si      -3.07250034      -0.23756250       0.15388620       0.00000000
Si       1.05978396       3.66637944      -1.36210464       0.00000000
Si       3.64366032       1.45641288      -1.29123228       0.00000000
Si       0.99999966       1.11993750      -3.91861380       0.00000000
