10
Lattice="10.86 0.0 0.0 0.0 10.86 0.0 0.0 0.0 10.86" Properties=species:S:1:pos:R:3:initial_magmoms:R:1 pbc="T T T"
Si       1.68042210       0.78867492      -0.89939262       0.00000000
Si      -1.33567140      -1.83042042      -0.54163164       0.00000000
Si      -1.37929602       0.83859834       1.76201328       0.00000000
Si       0.03503436       2.25033318      -2.20742532       0.00000000
Si      -2.67996564      -0.46466682      -2.20742532       0.00000000
Si      -2.67996564       2.25033318       0.50757468       0.00000000
Si       2.75003436      -0.46466682      -2.20742532       0.00000000
Si       2.75003436       2.25033318       0.50757468       0.00000000
Si       0.03503436      -3.17966682      -2.20742532       0.00000000
Si      -1.32246564       0.89283318      -3.56492532       0.00000000
