10
Lattice="10.86 0.0 0.0 0.0 10.86 0.0 0.0 0.0 10.86" Properties=species:S:1:pos:R:3:initial_magmoms:R:1 pbc="T T T"
Si      -1.33382520       1.44552030      -1.26509226       0.00000000
Si      -1.33382520      -1.26947970       1.44990774       0.00000000
Si       1.38117480       1.44552030       1.44990774       0.00000000
Si       2.60168676       0.28716012      -2.62153884       0.00000000
Si       0.02367480       2.80302030      -2.62259226       0.00000000
Si       0.02367480      -2.62697970       2.80740774       0.00000000
Si      -2.63738358      -2.78535108      -0.26766642       0.00000000
Si      -2.74815558       0.03378546      -2.72565366       0.00000000
Si      -2.69132520       2.80302030       0.09240774       0.00000000
Si      -2.69132520       0.08802030       2.80740774       0.00000000
