10
Lattice="16.28999089631971 0.0 0.0 0.0 16.28999089631971 0.0 0.0 0.0 34.395419527814205" Properties=species:S:1:pos:R:3:initial_magmoms:R:1 pbc="T T T"
Si      -1.35777150       1.35413515      -1.35827588       0.00000000
Si       1.35835794       1.35578044       1.35755357       0.00000000
Si      -1.35666378      -1.35882330       1.35738159       0.00000000
Si       1.35930276      -1.36105503      -1.36353838       0.00000000
Si      -2.70663237      -0.00274596      -2.71987091       0.00000000
Si       0.00068418       2.71288568       2.71472879       0.00000000
Si      -2.71513575       2.71255988       0.00024077       0.00000000
Si       2.71459818       2.71316261       0.00134142       0.00000000
Si      -2.71427238      -0.00163820       2.71469440       0.00000000
Si       2.71520091      -0.00148004       2.71479759       0.00000000
