10
Lattice="16.28999089631971 0.0 0.0 0.0 16.28999089631971 0.0 0.0 0.0 34.395419527814205" Properties=species:S:1:pos:R:3:initial_magmoms:R:1 pbc="T T T"
Si      -1.35697329      -1.35677618       1.35665929       0.00000000
Si       1.35767376      -1.35710524      -1.35717522       0.00000000
Si       1.35728280       1.35791811       1.35676248       0.00000000
Si      -1.35747828       1.35755973      -1.35714083       0.00000000
Si       2.71391400       0.00027693      -2.71338737       0.00000000
Si      -0.00250866      -2.71335104       2.71414407       0.00000000
Si      -0.00068418      -2.71288568      -2.71472879       0.00000000
Si      -0.00029322       2.71384884      -2.71404089       0.00000000
Si       2.71451673      -2.71436572       0.00006879       0.00000000
Si      -2.71495656      -2.71452388      -0.00003440       0.00000000
