10
Lattice="16.28999089631971 0.0 0.0 0.0 16.28999089631971 0.0 0.0 0.0 34.395419527814205" Properties=species:S:1:pos:R:3:initial_magmoms:R:1 pbc="T T T"
Si      -1.06362297      -2.08578903      -0.49316180       0.00000000
Si       2.23715457      -0.87045778       0.04842878       0.00000000
Si      -0.55291518       2.12281506       1.18973823       0.00000000
Si       0.62615502       1.54722420      -2.11408125       0.00000000
Si      -2.44982052      -0.73670873      -1.96377318       0.00000000
Si       2.48271003      -0.08606007      -2.17097130       0.00000000
Si      -0.08104275       3.39960897      -0.82366757       0.00000000
Si       2.90199834       0.23846931       2.02049126       0.00000000
Si      -0.99344565       0.47488608      -3.51363165       0.00000000
Si      -2.87549451       1.66864986       1.83864257       0.00000000
