10
Lattice="16.28999089631971 0.0 0.0 0.0 16.28999089631971 0.0 0.0 0.0 34.395419527814205" Properties=species:S:1:pos:R:3:initial_magmoms:R:1 pbc="T T T"
Si       1.32566391      -1.34400319      -1.35855104       0.00000000
Si      -1.39167099       1.38404727      -1.31459367       0.00000000
Si       1.61960067       1.07233812       1.39955040       0.00000000
Si      -1.45637487      -1.21159481       1.54985847       0.00000000
Si       0.99344565      -0.47488608       3.51363165       0.00000000
Si       2.68222995      -2.53059286       0.07831841       0.00000000
Si       3.47615568      -0.56094615       1.34266035       0.00000000
Si       2.69167815       0.01845657      -2.69316285       0.00000000
Si      -2.73564486      -2.64999253       0.09957480       0.00000000
Si      -0.02656899      -2.69526914      -2.69460746       0.00000000
