10
Lattice="16.28999089631971 0.0 0.0 0.0 16.28999089631971 0.0 0.0 0.0 34.395419527814205" Properties=species:S:1:pos:R:3:initial_magmoms:R:1 pbc="T T T"
Si      -1.26558639      -1.95765794       0.18969084       0.00000000
Si       2.34185040      -0.28738003       0.24902298       0.00000000
Si      -0.59290713       0.53067933      -2.24199788       0.00000000
Si      -0.47330595       1.64103831       1.68971032       0.00000000
Si       1.32066288       1.94057883      -2.51117659       0.00000000
Si       2.57831604      -2.59801784      -0.07615150       0.00000000
Si       3.19003812       0.83807163      -1.61263015       0.00000000
Si      -2.60271846       1.73330487      -1.95015259       0.00000000
Si      -3.72713571       0.88063740       0.01871112       0.00000000
Si      -0.57862080      -3.06550826       2.26129373       0.00000000
