10
Lattice="16.28999089631971 0.0 0.0 0.0 16.28999089631971 0.0 0.0 0.0 34.395419527814205" Properties=species:S:1:pos:R:3:initial_magmoms:R:1 pbc="T T T"
Si      -1.26293112       1.42113960       1.43733035       0.00000000
Si       1.44283788      -1.30784265       1.42733160       0.00000000
Si      -1.73099169      -1.00607040      -1.35920597       0.00000000
Si       1.67044176       1.12376565      -1.41551130       0.00000000
Si      -2.66214438       2.63384865      -0.04783718       0.00000000
Si      -2.59789662      -2.70992295      -0.00352553       0.00000000
Si       3.43960092      -0.68939280      -1.46906500       0.00000000
Si       2.77612551      -2.63779083      -0.10381919       0.00000000
Si      -2.62091439       0.06190200       2.80833254       0.00000000
Si       2.72657133       2.72668536      -0.01702230       0.00000000
