10
Lattice="16.28999089631971 0.0 0.0 0.0 16.28999089631971 0.0 0.0 0.0 34.395419527814205" Properties=species:S:1:pos:R:3:initial_magmoms:R:1 pbc="T T T"
Si       0.01132155       1.20093138       2.02716397       0.00000000
Si      -1.86978249      -1.21123643      -0.82772623       0.00000000
Si       0.00474039       1.87378983      -1.55739107       0.00000000
Si       1.64599047      -1.77773259       0.37432556       0.00000000
Si      -1.79628201      -2.59635626       1.14320120       0.00000000
Si       1.75928742       2.77578342       1.64905492       0.00000000
Si       0.25189227      -3.63772709       1.00104485       0.00000000
Si      -2.15101142       2.21227974       2.18837540       0.00000000
Si      -2.06333538      -1.27701871       3.05035949       0.00000000
Si      -1.59062076      -1.65299843      -3.17339197       0.00000000
