10
Lattice="16.28999089631971 0.0 0.0 0.0 16.28999089631971 0.0 0.0 0.0 34.395419527814205" Properties=species:S:1:pos:R:3:initial_magmoms:R:1 pbc="T T T"
Si       1.04247855       1.43676171      -1.49589203       0.00000000
Si      -1.23883821       1.77450228       1.14547130       0.00000000
Si       1.92860568      -1.10998431       1.14698470       0.00000000
Si      -1.73380986      -1.28619324      -1.33038118       0.00000000
Si       2.84540688       2.29985478      -0.09389955       0.00000000
Si       2.35924812       0.05315427      -2.86792608       0.00000000
Si      -0.37546821      -2.65065993      -2.85757305       0.00000000
Si       2.63580345      -2.96236908      -0.14342898       0.00000000
Si       3.77548443       0.50235102       1.22877705       0.00000000
Si      -0.36642726       2.77680969      -2.87050574       0.00000000
