10
Lattice="16.28999089631971 0.0 0.0 0.0 16.28999089631971 0.0 0.0 0.0 34.395419527814205" Properties=species:S:1:pos:R:3:initial_magmoms:R:1 pbc="T T T"
Si      -1.35795069       1.35545832       1.35779434       0.00000000
Si       1.35557235      -1.35744570       1.35865423       0.00000000
Si       1.34376210       1.34656398      -1.38260033       0.00000000
Si      -1.35684297      -1.35656604      -1.37299712       0.00000000
Si      -2.71430496       2.71344159      -0.00340515       0.00000000
Si      -0.00074934       2.71376739       2.71551989       0.00000000
Si       2.71409319      -0.00081450       2.71562308       0.00000000
Si       2.71437012      -2.71606428      -0.00412745       0.00000000
Si      -2.71482624      -2.71580364      -0.00199494       0.00000000
Si      -2.71560816      -0.00109143       2.71569187       0.00000000
