10
Lattice="16.28999089631971 0.0 0.0 0.0 16.28999089631971 0.0 0.0 0.0 34.395419527814205" Properties=species:S:1:pos:R:3:initial_magmoms:R:1 pbc="T T T"
Si       1.34757396       1.35180936      -1.39291208       0.00000000
Si      -1.36635633      -1.36150191      -1.39466625       0.00000000
Si      -1.28635614       1.42763931       1.46342273       0.00000000
Si       1.49320656      -1.39786119       1.58198381       0.00000000
Si       2.71134018       2.71386513       0.00182296       0.00000000
Si       2.71036278      -2.72080467      -0.01609707       0.00000000
Si      -2.71790505       2.71355562      -0.01224478       0.00000000
Si      -2.76980499       0.04945644       2.66234454       0.00000000
Si      -2.72735325      -2.71101438      -0.03171259       0.00000000
Si       2.70518256      -0.00083079      -2.75579695       0.00000000
