10
Lattice="16.28999089631971 0.0 0.0 0.0 16.28999089631971 0.0 0.0 0.0 34.395419527814205" Properties=species:S:1:pos:R:3:initial_magmoms:R:1 pbc="T T T"
Si       0.53835192       2.33823402      -0.24881660       0.00000000
Si      -1.92150324      -1.29824784       0.70727341       0.00000000
Si       0.55136763      -2.09572479      -1.52089751       0.00000000
Si       0.07405434      -3.03749856       0.82559372       0.00000000
Si       1.72253718       2.00917602       1.83516863       0.00000000
Si      -1.48023972      -0.33156666       2.86170050       0.00000000
Si       2.98121661      -0.42567399      -1.28370657       0.00000000
Si       0.66499038       0.48166272       3.24768612       0.00000000
Si      -2.85720084      -1.51016445      -1.47226236       0.00000000
Si      -1.45821564      -0.89998992      -3.30966670       0.00000000
