10
Lattice="16.28999089631971 0.0 0.0 0.0 16.28999089631971 0.0 0.0 0.0 34.395419527814205" Properties=species:S:1:pos:R:3:initial_magmoms:R:1 pbc="T T T"
Si       1.32048369      -1.82052153       1.02759813       0.00000000
Si      -0.47731329      -0.94177377       2.34649123       0.00000000
Si      -0.41283747      -0.58855770      -2.47967037       0.00000000
Si      -0.55136763       2.09572479       1.52089751       0.00000000
Si       0.51724008      -2.38606146      -1.15699377       0.00000000
Si      -2.00958327       1.19573487      -1.78876919       0.00000000
Si       2.42984898       1.67005080       0.23719095       0.00000000
Si      -2.47287087       0.79747695       2.22817092       0.00000000
Si      -3.40856847       0.58556034       0.04863515       0.00000000
Si       3.22810785      -0.36683451       1.51824906       0.00000000
