10
Lattice="16.28999089631971 0.0 0.0 0.0 16.28999089631971 0.0 0.0 0.0 34.395419527814205" Properties=species:S:1:pos:R:3:initial_magmoms:R:1 pbc="T T T"
Si       1.46939058       1.75485654       0.41229812       0.00000000
Si      -1.87092279       0.97756290       1.03815753       0.00000000
Si       0.86380983      -1.87312194       1.13418959       0.00000000
Si      -0.35445411       0.21188403      -2.32007553       0.00000000
Si      -1.74636945      -1.61684766      -2.45665982       0.00000000
Si       1.60029702      -0.64324323       3.01149264       0.00000000
Si      -1.90874817       2.91781593      -0.28396874       0.00000000
Si       3.35868849       1.13156856      -0.80038186       0.00000000
Si       0.23648193       3.73104531       0.10201687       0.00000000
Si       2.65711077      -2.71533123      -0.21892697       0.00000000
