10
Lattice="16.28999089631971 0.0 0.0 0.0 16.28999089631971 0.0 0.0 0.0 34.395419527814205" Properties=species:S:1:pos:R:3:initial_magmoms:R:1 pbc="T T T"
Si      -2.32253046      -0.06050106      -0.11876745       0.00000000
Si       1.21419144      -1.40590845      -1.40536323       0.00000000
Si       0.38346660       2.31454836      -0.38454101       0.00000000
Si       0.96097968       0.00053757       2.31412512       0.00000000
Si       1.35394335       2.51248815       1.71533493       0.00000000
Si       3.35622870      -0.35070741      -0.92479016       0.00000000
Si      -2.65175136       1.34671059       2.02805826       0.00000000
Si       3.23916876      -0.77165730       1.44392052       0.00000000
Si      -2.86099641       1.81214847      -1.46039593       0.00000000
Si       0.38494899      -3.62056653      -0.91956205       0.00000000
