10
Lattice="16.28999089631971 0.0 0.0 0.0 16.28999089631971 0.0 0.0 0.0 34.395419527814205" Properties=species:S:1:pos:R:3:initial_magmoms:R:1 pbc="T T T"
Si       0.97047675       0.19793979       2.09987593       0.00000000
Si      -2.06348688       1.12174569       0.05176514       0.00000000
Si       1.45793871       0.76703094      -1.70088884       0.00000000
Si      -0.38346660      -2.31454836       0.38454101       0.00000000
Si      -3.24446301      -0.50239989      -1.07585493       0.00000000
Si       3.22265070       0.27070722       1.45884814       0.00000000
Si       3.44974959      -0.29229147      -0.80385580       0.00000000
Si       0.69779844       3.10096440      -1.67044888       0.00000000
Si       0.57751308      -2.31401079       2.69866612       0.00000000
Si      -2.70599706      -2.37504942       0.26577356       0.00000000
