10
Lattice="16.28999089631971 0.0 0.0 0.0 16.28999089631971 0.0 0.0 0.0 34.395419527814205" Properties=species:S:1:pos:R:3:initial_magmoms:R:1 pbc="T T T"
Si       1.35570267      -1.35716877       1.36460464       0.00000000
Si      -1.35930276       1.36105503       1.36353838       0.00000000
Si       1.36603053       1.35062780      -1.38681721       0.00000000
Si      -1.35358497      -1.36795275      -1.39292928       0.00000000
Si       2.71456560      -2.71039536       0.00330196       0.00000000
Si      -2.71454931      -2.71384884       0.00192614       0.00000000
Si      -2.71707426       2.71519018       0.00526250       0.00000000
Si       2.71200807       2.72093077       0.00216691       0.00000000
Si      -0.00099369      -2.71352304       2.72085118       0.00000000
Si       2.71417464       0.00167787       2.72085118       0.00000000
