10
Lattice="16.28999089631971 0.0 0.0 0.0 16.28999089631971 0.0 0.0 0.0 34.395419527814205" Properties=species:S:1:pos:R:3:initial_magmoms:R:1 pbc="T T T"
Si      -1.35721764       1.35767376      -1.35748478       0.00000000
Si       1.35729909       1.35754344       1.35775994       0.00000000
Si      -1.35765747      -1.35757602       1.35751918       0.00000000
Si       1.35775521      -1.35808101      -1.35755357       0.00000000
Si       2.71445157      -0.00172674      -2.71380012       0.00000000
Si       2.71464705       2.71501702      -0.00006879       0.00000000
Si      -2.71482624       2.71485886      -0.00017198       0.00000000
Si      -2.71451673      -2.71544526      -0.00013758       0.00000000
Si      -0.00237834       2.71603170       2.71400649       0.00000000
Si      -2.71599912      -0.00060273      -2.71466000       0.00000000
