10
Lattice="16.28999089631971 0.0 0.0 0.0 16.28999089631971 0.0 0.0 0.0 34.395419527814205" Properties=species:S:1:pos:R:3:initial_magmoms:R:1 pbc="T T T"
Si      -1.18097613      -1.62414558      -1.12762006       0.00000000
Si      -0.86644881       0.34169904       2.14703208       0.00000000
Si       2.06348688      -1.12174569      -0.05176514       0.00000000
Si       0.42782427       1.97017776      -1.20745188       0.00000000
Si      -0.97173108      -2.08958346       2.36083412       0.00000000
Si      -0.10164960       3.48749352       0.53233821       0.00000000
Si      -0.64251018      -3.49679511       0.21400842       0.00000000
Si       0.58531599       2.37964320       2.60394109       0.00000000
Si      -0.34381674      -1.38202731      -3.35747636       0.00000000
Si       3.03396363      -0.92380590       2.04811080       0.00000000
