10
Lattice="16.28999089631971 0.0 0.0 0.0 16.28999089631971 0.0 0.0 0.0 34.395419527814205" Properties=species:S:1:pos:R:3:initial_magmoms:R:1 pbc="T T T"
Si       1.35679410       1.35256033      -1.39184582       0.00000000
Si      -1.35819504      -1.36440709      -1.39229297       0.00000000
Si       1.41380910      -1.42492444       1.46916677       0.00000000
Si      -1.35612621       1.54352800       1.43776374       0.00000000
Si      -2.70892926       2.71124407      -0.06232454       0.00000000
Si       2.71603170       2.70511903       0.00481536       0.00000000
Si      -2.70749574      -2.71926268       0.00158219       0.00000000
Si       2.71393029      -2.72499676      -0.02596856       0.00000000
Si       0.00047241       2.71147213      -2.75579695       0.00000000
Si      -2.71544526      -0.00447323      -2.75572816       0.00000000
