10
Lattice="16.28999089631971 0.0 0.0 0.0 16.28999089631971 0.0 0.0 0.0 34.395419527814205" Properties=species:S:1:pos:R:3:initial_magmoms:R:1 pbc="T T T"
Si       0.66484377       1.10892709       1.97206248       0.00000000
Si       0.24555546       0.78439771      -2.21940008       0.00000000
Si      -0.01195686      -2.38178275      -0.25975435       0.00000000
Si      -2.23715457       0.87045778      -0.04842878       0.00000000
Si       1.00802520       3.11310208       0.73874523       0.00000000
Si      -3.30077754      -1.21533125      -0.54159058       0.00000000
Si      -1.61099955       2.41768198      -2.16251003       0.00000000
Si       2.75722911       0.19453192       2.34979319       0.00000000
Si      -1.80191835      -2.47066099      -1.98093650       0.00000000
Si       2.44944585      -2.73490108      -0.17871870       0.00000000
