10
Lattice="16.28999089631971 0.0 0.0 0.0 16.28999089631971 0.0 0.0 0.0 34.395419527814205" Properties=species:S:1:pos:R:3:initial_magmoms:R:1 pbc="T T T"
Si      -1.99601370      -0.98332860       0.65337575       0.00000000
Si       1.54368927      -1.72295976       0.27530109       0.00000000
Si       0.07420095       1.61423311       1.71110429       0.00000000
Si       0.55180746       1.17081443      -1.98014541       0.00000000
Si       2.04219585       2.63392195      -0.83329829       0.00000000
Si      -1.54057788       2.08520959      -2.35787612       0.00000000
Si      -2.48942151       2.52464863      -0.16351592       0.00000000
Si       1.94268024      -1.57504656       2.56724115       0.00000000
Si       1.90765674       0.74450839       2.95628796       0.00000000
Si       0.35826597      -3.51946983      -0.64866358       0.00000000
