10
Lattice="16.28999089631971 0.0 0.0 0.0 16.28999089631971 0.0 0.0 0.0 34.395419527814205" Properties=species:S:1:pos:R:3:initial_magmoms:R:1 pbc="T T T"
Si       1.21632543      -0.31773645      -1.94798567       0.00000000
Si       1.27454589       1.44899550       1.36641525       0.00000000
Si      -1.39650912      -1.36411646       1.36715131       0.00000000
Si       0.86657913       2.04703398      -2.08869741       0.00000000
Si      -2.58185097       0.89331102      -2.56810104       0.00000000
Si       1.93802130       3.39739353       0.00116944       0.00000000
Si      -0.04139289      -2.64758070       2.88841342       0.00000000
Si      -3.17161413      -2.30069534      -0.06122388       0.00000000
Si       2.65654062       0.08027712       2.89794783       0.00000000
Si      -2.74825332       0.07289775       2.89815077       0.00000000
