10
Lattice="16.28999089631971 0.0 0.0 0.0 16.28999089631971 0.0 0.0 0.0 34.395419527814205" Properties=species:S:1:pos:R:3:initial_magmoms:R:1 pbc="T T T"
Si       1.35143469       1.34643366       1.38611898       0.00000000
Si      -1.36257705      -1.36778985       1.38250746       0.00000000
Si       1.30486158      -1.31030244      -1.54768468       0.00000000
Si      -1.44428769       1.29725415      -1.44071486       0.00000000
Si      -0.73125810      -2.11882401      -2.89275756       0.00000000
Si      -2.50041726      -0.30566556      -2.83920386       0.00000000
Si       2.72103273       2.68361460       0.00546887       0.00000000
Si       2.70104490      -2.71616202      -0.00002064       0.00000000
Si      -2.73318507       2.69483841       0.00403458       0.00000000
Si      -0.00504990       2.70536175       2.74535793       0.00000000
