10
Lattice="16.28999089631971 0.0 0.0 0.0 16.28999089631971 0.0 0.0 0.0 34.395419527814205" Properties=species:S:1:pos:R:3:initial_magmoms:R:1 pbc="T T T"
Si      -1.06298877       0.03572397       2.09361596       0.00000000
Si      -1.57387575       0.36707886      -1.73827668       0.00000000
Si       2.06215718       1.26555381      -0.26109578       0.00000000
Si       0.48056596      -2.21929163      -0.89029154       0.00000000
Si       1.50380602      -1.37686012      -2.78114639       0.00000000
Si      -0.97472955      -2.27806595       2.43368366       0.00000000
Si      -0.04520586       0.25018182      -3.47507436       0.00000000
Si       3.24127625      -0.09596439      -1.79685212       0.00000000
Si       1.63192199       3.23695332      -1.51198909       0.00000000
Si       0.07163663       1.21389822       3.75182006       0.00000000
