10
Lattice="16.28999089631971 0.0 0.0 0.0 16.28999089631971 0.0 0.0 0.0 34.395419527814205" Properties=species:S:1:pos:R:3:initial_magmoms:R:1 pbc="T T T"
Si      -1.34868168      -1.34529336       1.38454367       0.00000000
Si       1.36544409       1.36948401       1.37886843       0.00000000
Si      -1.44283788       1.30784265      -1.42733160       0.00000000
Si       1.33328763      -1.32994818      -1.53115079       0.00000000
Si       1.99676304       0.61844985      -2.89639660       0.00000000
Si       0.22760388       2.43160830      -2.84284290       0.00000000
Si      -2.68951158      -2.70604593       0.00058472       0.00000000
Si       2.71528236      -2.69866656       0.00038179       0.00000000
Si      -2.70576900       2.72898225       0.00999875       0.00000000
Si       0.00661374      -2.70293454       2.74254439       0.00000000
