10
Lattice="16.28999089631971 0.0 0.0 0.0 16.28999089631971 0.0 0.0 0.0 34.395419527814205" Properties=species:S:1:pos:R:3:initial_magmoms:R:1 pbc="T T T"
Si       1.35685926      -1.35848826       1.36188740       0.00000000
Si      -1.35879777       1.35861858       1.36278168       0.00000000
Si       1.36257705       1.36778985      -1.38250746       0.00000000
Si      -1.36544409      -1.36948401      -1.37886843       0.00000000
Si       2.71401174       2.71422351       0.00361152       0.00000000
Si      -2.71412577      -2.71477737       0.00567525       0.00000000
Si       2.71581993      -2.71443528      -0.00154779       0.00000000
Si      -2.71437012       2.71606428       0.00412745       0.00000000
Si       2.71463076       0.00035838       2.71964734       0.00000000
Si      -0.00043983      -2.71485882       2.71971613       0.00000000
