10
Lattice="16.28999089631971 0.0 0.0 0.0 16.28999089631971 0.0 0.0 0.0 34.395419527814205" Properties=species:S:1:pos:R:3:initial_magmoms:R:1 pbc="T T T"
Si       1.35729909       1.35637056      -1.35782874       0.00000000
Si       1.35725022      -1.35689184       1.35745039       0.00000000
Si      -1.35839052      -1.35755973      -1.35604017       0.00000000
Si      -1.35697329       1.35762489       1.35755357       0.00000000
Si      -2.71368594       0.00008145      -2.71404089       0.00000000
Si       0.00133578       2.71546155       2.71345616       0.00000000
Si      -2.71502172       0.00008145       2.71410968       0.00000000
Si      -0.00013032      -2.71472361       2.71479759       0.00000000
Si      -2.71463076       2.71492398       0.00000000       0.00000000
Si      -2.71463076      -2.71494190       0.00017198       0.00000000
