10
Lattice="16.28999089631971 0.0 0.0 0.0 16.28999089631971 0.0 0.0 0.0 34.395419527814205" Properties=species:S:1:pos:R:3:initial_magmoms:R:1 pbc="T T T"
Si      -1.78820217       0.80806545       1.33179139       0.00000000
Si       0.99149085       1.79146017      -1.27015476       0.00000000
Si      -1.71432702      -0.99038313      -1.39119231       0.00000000
Si       1.79201403      -1.74390966       0.14693731       0.00000000
Si      -0.30885840      -1.96123455       2.86084062       0.00000000
Si       2.23313094       0.37346454      -2.74812677       0.00000000
Si      -0.49285395      -2.35208052      -2.79786257       0.00000000
Si      -2.71827972       2.60556921       0.00911479       0.00000000
Si       0.85994910      -3.51979659      -1.29777430       0.00000000
Si      -0.98495856       1.37360538       3.51638329       0.00000000
