10
Lattice="16.28999089631971 0.0 0.0 0.0 16.28999089631971 0.0 0.0 0.0 34.395419527814205" Properties=species:S:1:pos:R:3:initial_magmoms:R:1 pbc="T T T"
Si       1.83400965       0.86108940      -1.36219696       0.00000000
Si      -0.93206493      -1.77588693      -1.44471161       0.00000000
Si       0.25034472      -0.61851501       2.39364737       0.00000000
Si      -1.79201403       1.74390966      -0.14693731       0.00000000
Si      -2.10087243      -0.21732489       2.71390330       0.00000000
Si       0.44111691       2.11737420      -2.89506408       0.00000000
Si      -2.28486798      -0.60817086      -2.94479988       0.00000000
Si      -2.86334217      -2.54602926      -0.24424201       0.00000000
Si      -0.80052318       3.53536983      -1.41709208       0.00000000
Si      -3.50634105       0.75352653      -1.53812963       0.00000000
