10
Lattice="16.28999089631971 0.0 0.0 0.0 16.28999089631971 0.0 0.0 0.0 34.395419527814205" Properties=species:S:1:pos:R:3:initial_magmoms:R:1 pbc="T T T"
Si       1.58711841       1.66900824      -0.36018903       0.00000000
Si      -2.11434426       0.71816094      -0.73891721       0.00000000
Si       0.34974630      -2.36477043       0.14071174       0.00000000
Si       1.07144217       1.35035955       2.08986686       0.00000000
Si      -0.86657913      -2.04703398       2.08869741       0.00000000
Si       0.40796676      -0.59803848       3.45511267       0.00000000
Si      -3.44843010      -1.15372296      -0.47940363       0.00000000
Si      -0.63327375      -3.08214130      -1.92009097       0.00000000
Si       2.53460997       1.15659000      -2.52362774       0.00000000
Si      -2.07409167       0.99321759      -3.09854750       0.00000000
