10
Lattice="16.28999089631971 0.0 0.0 0.0 16.28999089631971 0.0 0.0 0.0 34.395419527814205" Properties=species:S:1:pos:R:3:initial_magmoms:R:1 pbc="T T T"
Si       1.35140211       1.36026387      -1.38114884       0.00000000
Si      -1.36296801      -1.35439947      -1.37997940       0.00000000
Si      -1.21715622       1.32294348       1.59808088       0.00000000
Si       1.48388868      -1.28127366       1.48172111       0.00000000
Si      -2.22588189      -0.46716462       2.76099066       0.00000000
Si       0.75899997       1.99283715       3.04096953       0.00000000
Si       2.53879650       0.40275396       2.78795668       0.00000000
Si       2.72552877      -2.69926929       0.00374910       0.00000000
Si      -2.71204065      -2.71386513      -0.01303587       0.00000000
Si       2.71751409       2.71230129      -0.03477379       0.00000000
