10
Lattice="16.28999089631971 0.0 0.0 0.0 16.28999089631971 0.0 0.0 0.0 34.395419527814205" Properties=species:S:1:pos:R:3:initial_magmoms:R:1 pbc="T T T"
Si      -0.22709889       0.56299869       2.26270394       0.00000000
Si      -1.99181088       1.05932241      -0.89703304       0.00000000
Si      -0.47698749      -2.37296430       0.26360664       0.00000000
Si       2.18867553       0.73862118      -0.78693324       0.00000000
Si       1.31675328       2.84265387      -1.20494101       0.00000000
Si      -3.44974959       0.29229147       0.80385580       0.00000000
Si      -2.32541379       0.08514783      -3.00729640       0.00000000
Si      -2.47927284       0.49023126       2.90373173       0.00000000
Si       0.64917279      -1.05981111       3.64801463       0.00000000
Si      -0.59404743      -2.79391419       2.63231732       0.00000000
