10
Lattice="16.28999089631971 0.0 0.0 0.0 16.28999089631971 0.0 0.0 0.0 34.395419527814205" Properties=species:S:1:pos:R:3:initial_magmoms:R:1 pbc="T T T"
Si       0.80699031      -2.17311858       0.37487589       0.00000000
Si       1.24322022       1.73410308       1.01569731       0.00000000
Si       0.11705994       0.42094989      -2.36871068       0.00000000
Si      -2.27818908       0.77219487       0.87020460       0.00000000
Si      -1.47784509      -0.67860882       2.87848548       0.00000000
Si       0.36694854       3.35691288      -0.36961338       0.00000000
Si      -2.02497732      -0.63425115      -2.84928375       0.00000000
Si      -3.23916876       0.77165730      -1.44392052       0.00000000
Si       1.75448187      -2.68553682      -1.78856281       0.00000000
Si       0.29131407      -2.49176727       2.82493178       0.00000000
