10
Lattice="16.28999089631971 0.0 0.0 0.0 16.28999089631971 0.0 0.0 0.0 34.395419527814205" Properties=species:S:1:pos:R:3:initial_magmoms:R:1 pbc="T T T"
Si      -1.35669636      -1.35635427       1.35624655       0.00000000
Si       1.35886293      -1.35322659      -1.36130267       0.00000000
Si       1.35847197       1.35884664       1.35624655       0.00000000
Si      -1.35570267       1.35716877      -1.36460464       0.00000000
Si       0.00130320      -2.71376739       2.71421286       0.00000000
Si      -2.71445157       0.00172674       2.71380012       0.00000000
Si      -2.71389771      -2.71466334      -0.00147900       0.00000000
Si       2.71595025      -2.71303434      -0.00055033       0.00000000
Si       2.71640637       0.00092853       2.71397209       0.00000000
Si       0.00019548       2.71674376       2.71373133       0.00000000
