10
Lattice="16.28999089631971 0.0 0.0 0.0 16.28999089631971 0.0 0.0 0.0 34.395419527814205" Properties=species:S:1:pos:R:3:initial_magmoms:R:1 pbc="T T T"
Si       1.35760860      -1.35264015      -1.36288487       0.00000000
Si      -1.35918873       1.36189287      -1.36212817       0.00000000
Si      -1.34757396      -1.35180936       1.39291208       0.00000000
Si       1.36376622       1.36205577       1.39473504       0.00000000
Si       2.71419093      -2.71235016      -0.00433383       0.00000000
Si      -2.71393029      -2.71331127      -0.00175417       0.00000000
Si       2.71306692       2.71691136       0.00085989       0.00000000
Si      -0.00073305      -2.71114470      -2.71947536       0.00000000
Si       2.71437012       0.00355122      -2.71971613       0.00000000
Si      -2.71648782       0.00434943      -2.71988811       0.00000000
