10
Lattice="16.28999089631971 0.0 0.0 0.0 16.28999089631971 0.0 0.0 0.0 34.395419527814205" Properties=species:S:1:pos:R:3:initial_magmoms:R:1 pbc="T T T"
Si       1.34930070       1.35485559      -1.39387516       0.00000000
Si      -1.36376622      -1.36205577      -1.39473504       0.00000000
Si      -1.37383344       1.52300164       1.37230922       0.00000000
Si       1.48511043      -1.55553210       1.51962488       0.00000000
Si      -2.71134018      -2.71386513      -0.00182296       0.00000000
Si       2.70749574       2.71926268      -0.00158219       0.00000000
Si       2.71653669      -2.72236851      -0.05269381       0.00000000
Si      -2.73039948       2.70959130      -0.06456024       0.00000000
Si       2.70868491      -0.00043983      -2.75751672       0.00000000
Si      -0.00794952       2.71478944      -2.75731035       0.00000000
