10
Lattice="16.28999089631971 0.0 0.0 0.0 16.28999089631971 0.0 0.0 0.0 34.395419527814205" Properties=species:S:1:pos:R:3:initial_magmoms:R:1 pbc="T T T"
Si       0.01195686       2.38178275       0.25975435       0.00000000
Si      -0.98961750      -1.20578580       1.89852503       0.00000000
Si      -1.78996149      -0.08887824      -1.72118215       0.00000000
Si       2.46140271      -0.35311833       0.08103565       0.00000000
Si      -0.53641341       1.19653375      -3.22398766       0.00000000
Si      -3.28882068       1.16645150      -0.28183623       0.00000000
Si       0.25751232       3.16618046      -1.95964573       0.00000000
Si      -3.21690033      -0.15208344       2.03259845       0.00000000
Si      -2.22519771       3.25224053       0.21132558       0.00000000
Si       2.90232414      -2.23875099       1.59832164       0.00000000
