10
Lattice="16.28999089631971 0.0 0.0 0.0 16.28999089631971 0.0 0.0 0.0 34.395419527814205" Properties=species:S:1:pos:R:3:initial_magmoms:R:1 pbc="T T T"
Si       1.99601370       0.98332860      -0.65337575       0.00000000
Si      -0.02679705      -1.95701544      -1.26055843       0.00000000
Si      -1.76661792       1.59562246       0.03618400       0.00000000
Si       0.24737994      -0.83917935       2.21513505       0.00000000
Si       2.07021465       2.59756172       1.05772853       0.00000000
Si      -0.49340781       3.50797724      -0.81689167       0.00000000
Si       3.53970297      -0.73963116      -0.37807466       0.00000000
Si      -1.39297419      -2.50106886       2.26091538       0.00000000
Si      -1.08434385      -3.48452874       0.15195905       0.00000000
Si      -2.01460059       1.84812235       2.47970476       0.00000000
