10
Lattice="16.28999089631971 0.0 0.0 0.0 16.28999089631971 0.0 0.0 0.0 34.395419527814205" Properties=species:S:1:pos:R:3:initial_magmoms:R:1 pbc="T T T"
Si       2.29029255      -0.40894416      -0.27447560       0.00000000
Si      -0.23646564       2.31063780       0.32517448       0.00000000
Si      -0.98096751      -0.86791491      -1.98870987       0.00000000
Si      -0.91409706      -1.34319195       2.18111796       0.00000000
Si       2.67292836      -1.70103438       1.66800680       0.00000000
Si      -2.57831604       2.59801784       0.07615150       0.00000000
Si      -3.31442856      -0.87695586      -1.47394774       0.00000000
Si      -0.22082724      -3.20184837      -2.01914984       0.00000000
Si       0.61172208       3.43608947      -1.53647864       0.00000000
Si      -3.84390243       0.64035990       0.26584235       0.00000000
