10
Lattice="16.28999089631971 0.0 0.0 0.0 16.28999089631971 0.0 0.0 0.0 34.395419527814205" Properties=species:S:1:pos:R:3:initial_magmoms:R:1 pbc="T T T"
Si       0.87192225      -2.10403269       0.41800777       0.00000000
Si       1.94828400       1.23373944      -0.34106517       0.00000000
Si      -0.79744437       1.00957275       2.05258220       0.00000000
Si      -0.62056755      -0.26344188      -2.36991452       0.00000000
Si       0.56876535       3.09585490      -0.84795075       0.00000000
Si      -1.31675328      -2.84265387       1.20494101       0.00000000
Si       1.71269802      -2.75012667      -1.70178312       0.00000000
Si      -3.30856416      -1.78333146       0.30790797       0.00000000
Si       1.07921250       0.92523942      -3.51290935       0.00000000
Si       2.71347417      -1.81750788       1.94489008       0.00000000
