10
Lattice="16.28999089631971 0.0 0.0 0.0 16.28999089631971 0.0 0.0 0.0 34.395419527814205" Properties=species:S:1:pos:R:3:initial_magmoms:R:1 pbc="T T T"
Si      -1.35668007      -1.35796698       1.35703764       0.00000000
Si       1.35742941      -1.35757602      -1.35745039       0.00000000
Si      -1.35761186       1.35775521      -1.35751918       0.00000000
Si       1.35840681       1.35762489       1.35727841       0.00000000
Si       2.71461447      -0.00128691      -2.71435044       0.00000000
Si      -2.71450792      -2.71498914      -0.00013758       0.00000000
Si      -2.71400264       0.00034209      -2.71582945       0.00000000
Si       0.00006516       2.71459818      -2.71527912       0.00000000
Si       2.71490769      -2.71513575      -0.00030956       0.00000000
Si      -2.71510278       2.71507059      -0.00027516       0.00000000
