10
Lattice="16.28999089631971 0.0 0.0 0.0 16.28999089631971 0.0 0.0 0.0 34.395419527814205" Properties=species:S:1:pos:R:3:initial_magmoms:R:1 pbc="T T T"
Si      -1.41889158      -1.77454205      -0.61867076       0.00000000
Si      -0.71993655       0.73711435       2.13667905       0.00000000
Si       1.96893972      -1.17860498       0.60525654       0.00000000
Si       0.51225534       1.63264896      -1.67144635       0.00000000
Si       2.94039387      -0.82045304      -1.46854765       0.00000000
Si       0.89770932       2.64746709       2.03817051       0.00000000
Si      -1.03625577      -3.06663227       1.32381165       0.00000000
Si      -0.05268186       0.31174010      -3.51920371       0.00000000
Si       1.32683679      -1.55037536      -3.01231813       0.00000000
Si       2.85213465       1.49333688      -1.80861536       0.00000000
