10
Lattice="16.28999089631971 0.0 0.0 0.0 16.28999089631971 0.0 0.0 0.0 34.395419527814205" Properties=species:S:1:pos:R:3:initial_magmoms:R:1 pbc="T T T"
Si      -1.35412254       1.35576783       1.35892939       0.00000000
Si       1.36169739      -1.35902583       1.35775994       0.00000000
Si       1.35392706       1.36076886      -1.38401742       0.00000000
Si      -1.36301688      -1.35018036      -1.38631160       0.00000000
Si       2.61677414      -0.18898029      -2.74001632       0.00000000
Si      -2.71262709       2.71241532      -0.00017198       0.00000000
Si      -2.71081890      -2.71624347      -0.00533129       0.00000000
Si      -2.71200807      -0.00144981       2.71586384       0.00000000
Si       0.00288333       2.71344159       2.71603582       0.00000000
Si       2.71885543       2.71313208      -0.00275164       0.00000000
