10
Lattice="16.28999089631971 0.0 0.0 0.0 16.28999089631971 0.0 0.0 0.0 34.395419527814205" Properties=species:S:1:pos:R:3:initial_magmoms:R:1 pbc="T T T"
Si      -1.35708732      -1.35646830       1.35741599       0.00000000
Si       1.35755973      -1.35749457      -1.35720962       0.00000000
Si      -1.35780408       1.35752715      -1.35738159       0.00000000
Si       1.35767376       1.35876519       1.35741599       0.00000000
Si       0.00008145       2.71474479      -2.71431605       0.00000000
Si       2.71480124       2.71467963       0.00006879       0.00000000
Si      -0.00348606       2.71386513       2.71569187       0.00000000
Si       0.00021177      -2.71497285      -2.71503835       0.00000000
Si      -2.71562445      -2.71458189       0.00013758       0.00000000
Si      -2.71523349       2.71507059      -0.00006879       0.00000000
