10
Lattice="16.28999089631971 0.0 0.0 0.0 16.28999089631971 0.0 0.0 0.0 34.395419527814205" Properties=species:S:1:pos:R:3:initial_magmoms:R:1 pbc="T T T"
Si       1.96078657       0.64887957      -1.07551097       0.00000000
Si       0.84533045      -1.10964222       1.88053622       0.00000000
Si      -1.52765895       1.45808532       1.08153018       0.00000000
Si      -1.05236562      -1.11509937      -1.85742248       0.00000000
Si      -3.28240146      -0.46009476      -1.43704143       0.00000000
Si      -0.61600539      -2.97189873       2.04859233       0.00000000
Si      -3.41267259       1.67485635      -0.28761466       0.00000000
Si       3.00108226      -1.44813213      -1.86523025       0.00000000
Si       3.57312190       1.30401450       0.49336817       0.00000000
Si       1.50300499       2.50149240      -2.52514114       0.00000000
