10
Lattice="16.28999089631971 0.0 0.0 0.0 16.28999089631971 0.0 0.0 0.0 34.395419527814205" Properties=species:S:1:pos:R:3:initial_magmoms:R:1 pbc="T T T"
Si      -0.76085703      -2.12828850      -0.69444391       0.00000000
Si       0.10070478      -0.32019624       2.37682800       0.00000000
Si       2.19674627       0.62107254      -0.78555743       0.00000000
Si      -1.38883653       1.91353743      -0.63937681       0.00000000
Si       0.08091243       3.40720011       0.49054775       0.00000000
Si       2.32569791       2.59276527       0.48741776       0.00000000
Si      -1.72582776      -2.79197568       1.41581945       0.00000000
Si      -2.02087224       0.26963208       3.19578340       0.00000000
Si      -1.40206401       1.85901480      -3.00168994       0.00000000
Si      -2.64587067      -1.91151747      -2.06358874       0.00000000
