10
Lattice="16.28999089631971 0.0 0.0 0.0 16.28999089631971 0.0 0.0 0.0 34.395419527814205" Properties=species:S:1:pos:R:3:initial_magmoms:R:1 pbc="T T T"
Si       1.35597960      -1.35692442       1.35745039       0.00000000
Si       1.35681039       1.35684988      -1.35734720       0.00000000
Si      -1.35808101      -1.35806472      -1.35693445       0.00000000
Si      -1.35938421       1.35529542       1.36364156       0.00000000
Si       0.00785178      -2.72192868       2.70482291       0.00000000
Si       2.71249677      -2.71521720      -0.00051593       0.00000000
Si       2.71386513      -0.00035838      -2.71441924       0.00000000
Si      -2.71484253      -2.71425609      -0.00010319       0.00000000
Si      -0.00123804      -2.71476108      -2.71445363       0.00000000
Si      -0.00130320       2.71465912      -2.71479759       0.00000000
