10
Lattice="16.28999089631971 0.0 0.0 0.0 16.28999089631971 0.0 0.0 0.0 34.395419527814205" Properties=species:S:1:pos:R:3:initial_magmoms:R:1 pbc="T T T"
Si      -2.31205599       0.36683451       0.13634352       0.00000000
Si       0.80497035      -1.86999426       1.22750442       0.00000000
Si       1.28661678       1.96691976       0.45178409       0.00000000
Si       0.82464867      -0.21983355      -3.06291382       0.00000000
Si       2.98784242      -1.41649695       0.36428209       0.00000000
Si       2.07790353      -2.07972801      -1.99641445       0.00000000
Si       3.38364055       0.83479734       1.07833140       0.00000000
Si      -2.63873565       0.49161591       2.47905125       0.00000000
Si      -2.75297742       2.25246717      -1.38094247       0.00000000
Si      -0.53787951      -3.80474127       0.59156715       0.00000000
