10
Lattice="16.28999089631971 0.0 0.0 0.0 16.28999089631971 0.0 0.0 0.0 34.395419527814205" Properties=species:S:1:pos:R:3:initial_magmoms:R:1 pbc="T T T"
Si      -2.12213088      -0.52657425       0.79095751       0.00000000
Si       1.82777092      -1.33907058       0.65729683       0.00000000
Si       0.61779825      -0.84778047      -2.16027432       0.00000000
Si       0.22784823       2.38794525       0.20788603       0.00000000
Si       1.32864498       2.65995242      -1.82354298       0.00000000
Si      -1.72313991      -0.37866105       3.08289757       0.00000000
Si       3.50507762       0.24162957       0.67652388       0.00000000
Si       2.71482202      -1.97990289      -1.53372701       0.00000000
Si       0.18117738       1.28111306      -3.52401907       0.00000000
Si      -3.66582015       1.19638551       0.51565642       0.00000000
