10
Lattice="16.28999089631971 0.0 0.0 0.0 16.28999089631971 0.0 0.0 0.0 34.395419527814205" Properties=species:S:1:pos:R:3:initial_magmoms:R:1 pbc="T T T"
Si       0.77796153      -1.16949168      -1.86402641       0.00000000
Si      -2.35032120       0.36549873       0.18614811       0.00000000
Si       0.65487429       2.25352602      -0.53240700       0.00000000
Si       0.63014607      -1.55134557       1.74309204       0.00000000
Si      -0.52919694       0.22216302       3.04513138       0.00000000
Si       3.13779513      -0.23501583      -1.50277111       0.00000000
Si      -2.73295701       1.65758895      -1.75633429       0.00000000
Si      -0.27469827      -3.66819849       0.89761777       0.00000000
Si      -1.06359039      -1.45601649      -3.39090872       0.00000000
Si      -1.31406543       3.43213100      -1.13766353       0.00000000
