10
Lattice="16.28999089631971 0.0 0.0 0.0 16.28999089631971 0.0 0.0 0.0 34.395419527814205" Properties=species:S:1:pos:R:3:initial_magmoms:R:1 pbc="T T T"
Si       1.35741312      -1.35749457      -1.35724401       0.00000000
Si       1.35685926       1.35786924       1.35765676       0.00000000
Si      -1.35774869      -1.35738054       1.35738159       0.00000000
Si      -1.35824065       1.35788553      -1.35745039       0.00000000
Si      -0.00148239       2.71484253      -2.71452242       0.00000000
Si       2.71476108      -2.71476108       0.00044714       0.00000000
Si       2.71451673       2.71544526       0.00013758       0.00000000
Si       2.71507059      -0.00094482      -2.71514154       0.00000000
Si      -2.71536342      -2.71495656       0.00003440       0.00000000
Si      -0.00019548      -2.71542897      -2.71496956       0.00000000
