10
Lattice="16.28999089631971 0.0 0.0 0.0 16.28999089631971 0.0 0.0 0.0 34.395419527814205" Properties=species:S:1:pos:R:3:initial_magmoms:R:1 pbc="T T T"
Si      -1.35685926      -1.35786924      -1.35765676       0.00000000
Si       1.35765747       1.35757602      -1.35751918       0.00000000
Si      -1.35896067       1.35896067       1.36068356       0.00000000
Si       1.36021500      -1.36008468       1.36061477       0.00000000
Si      -2.71357354       2.71595025      -0.00034395       0.00000000
Si      -2.71460795      -2.71524978      -0.00027516       0.00000000
Si       2.71495656       2.71511946       0.00024077       0.00000000
Si      -2.71509991       0.00001629      -2.71510714       0.00000000
Si       0.00043983       2.71524978      -2.71500396       0.00000000
Si       0.00055386      -2.71536381      -2.71490077       0.00000000
