10
Lattice="16.28999089631971 0.0 0.0 0.0 16.28999089631971 0.0 0.0 0.0 34.395419527814205" Properties=species:S:1:pos:R:3:initial_magmoms:R:1 pbc="T T T"
Si      -1.30422627       1.33652934       1.47152286       0.00000000
Si       1.40812389      -1.38973248       1.43492611       0.00000000
Si      -1.97540685      -0.79524522      -1.22256069       0.00000000
Si       0.99751815       1.67573342      -1.50859912       0.00000000
Si       1.48196646       0.16319322      -3.44389287       0.00000000
Si      -2.66365935      -2.65372245       0.04162880       0.00000000
Si      -2.54485149       2.76946520       0.06134083       0.00000000
Si       2.77262316       2.61231231      -0.08022392       0.00000000
Si      -2.67047509      -0.01620855       2.83126054       0.00000000
Si       0.04463460       2.69341045       2.83311789       0.00000000
