10
Lattice="16.28999089631971 0.0 0.0 0.0 16.28999089631971 0.0 0.0 0.0 34.395419527814205" Properties=species:S:1:pos:R:3:initial_magmoms:R:1 pbc="T T T"
Si       0.32189040       1.06507278       2.11280862       0.00000000
Si       1.95853041       1.50361587      -0.46299700       0.00000000
Si      -2.51653947      -0.11508885       0.04471407       0.00000000
Si      -1.72628388       2.10644361       2.25496496       0.00000000
Si       1.72595808      -3.18656835       0.35901959       0.00000000
Si       0.62019288      -0.75561165       3.53856834       0.00000000
Si       1.71598860       2.92506728       1.48608933       0.00000000
Si      -2.91233760      -2.36638314      -0.66933524       0.00000000
Si      -1.14258060      -3.76421175       0.03941717       0.00000000
Si       0.79026048      -3.39848496      -1.82051618       0.00000000
