10
Lattice="16.28999089631971 0.0 0.0 0.0 16.28999089631971 0.0 0.0 0.0 34.395419527814205" Properties=species:S:1:pos:R:3:initial_magmoms:R:1 pbc="T T T"
Si      -0.39579813      -2.25129429      -0.71404931       0.00000000
Si      -0.88705110       0.64083231       2.19102384       0.00000000
Si      -2.09702377       1.13212242      -0.62654731       0.00000000
Si       2.51653947       0.11508885      -0.04471407       0.00000000
Si       0.79025559       2.22153246       2.21025089       0.00000000
Si      -3.38364055      -0.83479734      -1.07833140       0.00000000
Si       0.71675511       3.60665228       0.23932346       0.00000000
Si      -2.71482202       1.97990289       1.53372701       0.00000000
Si       2.83842987       1.18016163       2.06809455       0.00000000
Si      -2.57867020      -2.70479160       0.14917302       0.00000000
