10
Lattice="16.28999089631971 0.0 0.0 0.0 16.28999089631971 0.0 0.0 0.0 34.395419527814205" Properties=species:S:1:pos:R:3:initial_magmoms:R:1 pbc="T T T"
Si       2.04817428      -1.04137083      -0.14215635       0.00000000
Si      -1.67730669      -1.58070015      -0.01922705       0.00000000
Si      -0.26705337       1.31933754       1.90715829       0.00000000
Si      -0.07350048       1.38511982      -1.97092743       0.00000000
Si      -0.79025559      -2.22153246      -2.21025089       0.00000000
Si       1.79628201       2.59635626      -1.14320120       0.00000000
Si       1.72628388      -2.10644361      -2.25496496       0.00000000
Si      -3.50507762      -0.24162957      -0.67652388       0.00000000
Si       3.44227248       0.81862367      -0.76887564       0.00000000
Si      -1.81606526       2.94637949       1.21323031       0.00000000
