10
Lattice="10.86 0.0 0.0 0.0 10.86 0.0 0.0 0.0 10.86" Properties=species:S:1:pos:R:3:initial_magmoms:R:1 pbc="T T T"
Si       0.98035392       1.61926944       1.15386414       0.00000000
Si       1.13510892      -1.33107762      -1.45432776       0.00000000
Si      -1.57989108      -1.33107762       1.26067224       0.00000000
Si      -1.57989108       1.38392238      -1.45432776       0.00000000
Si       2.39792058      -2.69490900      -0.22215216       0.00000000
Si      -0.06792930      -2.54197848       2.71691136       0.00000000
Si       2.49260892       0.02642238      -2.81182776       0.00000000
Si       2.45016804       2.96498634      -0.26791620       0.00000000
Si      -0.22239108      -2.68857762      -2.81182776       0.00000000
Si      -0.22239108       2.74142238      -2.81182776       0.00000000
