10
Lattice="10.86 0.0 0.0 0.0 10.86 0.0 0.0 0.0 10.86" Properties=species:S:1:pos:R:3:initial_magmoms:R:1 pbc="T T T"
Si      -1.19348142      -1.30571952       1.46624118       0.00000000
Si       1.52151858      -1.30571952      -1.24875882       0.00000000
Si       1.52151858       1.40928048       1.46624118       0.00000000
Si      -2.41188654      -2.57935860       0.05242122       0.00000000
Si      -2.52789306       2.52600342       0.16222668       0.00000000
Si      -2.55098142       0.05178048       2.82374118       0.00000000
Si       0.18316476      -2.63410386      -2.78350488       0.00000000
Si       2.87901858       0.05178048      -2.60625882       0.00000000
Si       0.16401858      -2.66321952       2.82374118       0.00000000
Si       2.87901858      -2.66321952       0.10874118       0.00000000
