10
Lattice="10.86 0.0 0.0 0.0 10.86 0.0 0.0 0.0 10.86" Properties=species:S:1:pos:R:3:initial_magmoms:R:1 pbc="T T T"
Si      -1.26281166       1.36383138      -1.23217560       0.00000000
Si       1.45218834      -1.35116862      -1.23217560       0.00000000
Si      -1.26281166      -1.35116862       1.48282440       0.00000000
Si      -2.39792058       2.69490900       0.22215216       0.00000000
Si      -2.62031166       0.00633138      -2.58967560       0.00000000
Si       0.09468834      -2.70866862      -2.58967560       0.00000000
Si       0.09468834       2.72133138      -2.58967560       0.00000000
Si      -2.62031166      -2.70866862       0.12532440       0.00000000
Si       2.69848194       2.68443996       0.27138054       0.00000000
Si       2.80968834       0.00633138      -2.58967560       0.00000000
