10
Lattice="10.86 0.0 0.0 0.0 10.86 0.0 0.0 0.0 10.86" Properties=species:S:1:pos:R:3:initial_magmoms:R:1 pbc="T T T"
Si      -1.19618556       1.48007682      -1.16825364       0.00000000
Si       1.51881444      -1.23492318      -1.16825364       0.00000000
Si      -1.19618556      -1.23492318       1.54674636       0.00000000
Si       1.45075482       1.32544128       1.35875976       0.00000000
Si      -2.55368556       0.12257682      -2.52575364       0.00000000
Si       0.16131444      -2.59242318      -2.52575364       0.00000000
Si      -2.55368556      -2.59242318       0.18924636       0.00000000
Si       2.89904442      -2.35909608       0.22534500       0.00000000
Si       0.16131444       2.83757682      -2.52575364       0.00000000
Si       2.62421040       2.76040566      -0.04933698       0.00000000
