10
Lattice="10.86 0.0 0.0 0.0 10.86 0.0 0.0 0.0 10.86" Properties=species:S:1:pos:R:3:initial_magmoms:R:1 pbc="T T T"
Si       1.35750000       1.35750000       1.35750000       0.00000000
Si      -1.35750000      -1.35750000       1.35750000       0.00000000
Si      -1.35750000       1.35750000      -1.35750000       0.00000000
Si       1.35750000      -1.35750000      -1.35750000       0.00000000
Si      -2.39079642      -0.02398974      -2.63903430       0.00000000
Si      -0.25210404       2.63782884       2.47641666       0.00000000
Si       0.02272998      -2.48167290       2.75109864       0.00000000
Si      -0.05780778       2.54043636      -2.75911332       0.00000000
Si      -0.09156066      -2.57824002      -2.74478898       0.00000000
Si      -2.87631444      -0.12257682       2.52575364       0.00000000
