10
Lattice="10.86 0.0 0.0 0.0 10.86 0.0 0.0 0.0 10.86" Properties=species:S:1:pos:R:3:initial_magmoms:R:1 pbc="T T T"
Si       1.10000940       1.01711502       1.60444554       0.00000000
Si      -1.61499060       1.01711502      -1.11055446       0.00000000
Si       1.10000940      -1.69788498      -1.11055446       0.00000000
Si       2.45750940       2.37461502       0.24694554       0.00000000
Si      -0.25749060       2.37461502      -2.46805446       0.00000000
Si       2.45750940      -0.34038498      -2.46805446       0.00000000
Si      -0.25749060       2.37461502       2.96194554       0.00000000
Si      -2.97249060       2.37461502       0.24694554       0.00000000
Si       2.45750940      -0.34038498       2.96194554       0.00000000
Si      -0.27881964      -3.11350770      -2.27694018       0.00000000
