10
Lattice="16.28999089631971 0.0 0.0 0.0 16.28999089631971 0.0 0.0 0.0 34.279985188174585" Properties=species:S:1:pos:R:3:initial_magmoms:R:1 pbc="T T T"
Si      -1.39190231      -1.23005790       1.42409906       0.00000000
Si       1.17434610      -1.72862964      -1.11180338       0.00000000
Si       1.37101527       1.52578656       1.41809663       0.00000000
Si      -1.08224244       0.52751907      -2.37440450       0.00000000
Si      -2.62638946      -2.25792432      -0.37738857       0.00000000
Si      -0.61936209      -3.23235954      -1.56464224       0.00000000
Si      -2.53036805       2.63930580       0.36829584       0.00000000
Si       0.50617917       2.25507357      -2.89556341       0.00000000
Si      -0.00387702      -2.60022609       2.78833011       0.00000000
Si       2.70681156       0.12821859       2.80241919       0.00000000
