10
Lattice="16.28999089631971 0.0 0.0 0.0 16.28999089631971 0.0 0.0 0.0 34.279985188174585" Properties=species:S:1:pos:R:3:initial_magmoms:R:1 pbc="T T T"
Si       1.34412048       1.36060107      -1.35877367       0.00000000
Si      -1.35692442       1.35452490       1.35419729       0.00000000
Si       1.35615879      -1.35757694       1.35563705       0.00000000
Si      -1.35255870      -1.37417537      -1.34476686       0.00000000
Si      -2.63887574       0.00127225      -2.66971303       0.00000000
Si       2.64435570      -0.03765108      -2.72428679       0.00000000
Si      -0.08905743       2.58551133      -2.81310286       0.00000000
Si      -0.00048870       2.71358331       2.71178830       0.00000000
Si       2.71407690      -0.00111098       2.71240534       0.00000000
Si      -2.71569287      -0.00089106       2.71192542       0.00000000
