10
Lattice="16.28999089631971 0.0 0.0 0.0 16.28999089631971 0.0 0.0 0.0 34.279985188174585" Properties=species:S:1:pos:R:3:initial_magmoms:R:1 pbc="T T T"
Si       1.35604476       1.35798164      -1.35711109       0.00000000
Si      -1.35791811      -1.35646596      -1.35676829       0.00000000
Si      -1.35725022       1.35731375       1.35669973       0.00000000
Si       1.35796698      -1.35761094       1.35697397       0.00000000
Si      -2.71407690       0.00111098      -2.71240534       0.00000000
Si      -0.00011403       2.71353770       2.71538770       0.00000000
Si       0.00105885      -2.71494909       2.71418790       0.00000000
Si      -2.71503801      -0.00099043       2.71418790       0.00000000
Si      -2.71456560       2.71469429      -0.00061704       0.00000000
Si      -2.71433754      -2.71498167      -0.00023996       0.00000000
