10
Lattice="16.28999089631971 0.0 0.0 0.0 16.28999089631971 0.0 0.0 0.0 34.279985188174585" Properties=species:S:1:pos:R:3:initial_magmoms:R:1 pbc="T T T"
Si      -1.05642279      -1.67034076       1.27967256       0.00000000
Si       1.34004798       1.45433862       1.28875676       0.00000000
Si      -1.39367466       1.30536657      -1.44171414       0.00000000
Si       1.31272965      -1.39432626      -1.45515190       0.00000000
Si      -0.89419068       1.79118324       2.52297404       0.00000000
Si       1.76150286      -1.85387042       2.36987954       0.00000000
Si      -1.44717102      -0.68494563       3.40496427       0.00000000
Si      -2.78969508       2.61333954      -0.01295784       0.00000000
Si       2.56564242      -2.89610855      -0.11295261       0.00000000
Si      -0.03306870       2.66882328      -2.81791920       0.00000000
