10
Lattice="16.28999089631971 0.0 0.0 0.0 16.28999089631971 0.0 0.0 0.0 34.279985188174585" Properties=species:S:1:pos:R:3:initial_magmoms:R:1 pbc="T T T"
Si      -2.14759215      -0.40973652       0.82011482       0.00000000
Si       0.47348514       2.30177374       0.25586595       0.00000000
Si       0.09037692      -0.14457880      -2.43789107       0.00000000
Si       1.38592062      -1.12522590       1.68482793       0.00000000
Si      -1.75197321      -2.74640670       0.47985150       0.00000000
Si       3.28274451      -0.32696703       0.63325452       0.00000000
Si       2.89474929       1.96224127       0.31105676       0.00000000
Si      -0.50332842       3.12753013      -1.74557210       0.00000000
Si       0.89863785       1.88558053      -3.08855983       0.00000000
Si       0.28729044      -3.83013153      -0.02056800       0.00000000
