10
Lattice="16.28999089631971 0.0 0.0 0.0 16.28999089631971 0.0 0.0 0.0 34.279985188174585" Properties=species:S:1:pos:R:3:initial_magmoms:R:1 pbc="T T T"
Si       1.06267815      -2.06972825       0.14363322       0.00000000
Si       1.65788217       1.43114655      -0.84767595       0.00000000
Si      -1.88998209      -0.72409280      -1.21059835       0.00000000
Si      -0.82929132      -1.89557186       1.65209053       0.00000000
Si       0.66329622       2.38171692      -2.70284122       0.00000000
Si       3.51067419       0.12367368      -1.30116612       0.00000000
Si       3.35920977      -1.64620454       0.21901495       0.00000000
Si      -2.69676063      -2.65794386       0.22251151       0.00000000
Si      -1.53595152       2.93626110      -2.19621704       0.00000000
Si       1.33947783      -3.42531689      -1.72980330       0.00000000
