10
Lattice="16.28999089631971 0.0 0.0 0.0 16.28999089631971 0.0 0.0 0.0 34.279985188174585" Properties=species:S:1:pos:R:3:initial_magmoms:R:1 pbc="T T T"
Si      -1.35754344       1.35682668      -1.36064193       0.00000000
Si       1.35746199      -1.35967743      -1.35981921       0.00000000
Si       1.35602847       1.37065689       1.36023057       0.00000000
Si      -1.36060596      -1.36345671       1.37620505       0.00000000
Si       2.71252935       2.71598283      -0.00212536       0.00000000
Si      -2.71516833      -2.71505430      -0.00106268       0.00000000
Si      -2.71500543       2.71531494      -0.00291380       0.00000000
Si      -2.71437012      -0.00053757      -2.71795870       0.00000000
Si       0.00060273       2.71419093      -2.71840434       0.00000000
Si       2.71554300      -0.00052128      -2.71850718       0.00000000
