10
Lattice="16.28999089631971 0.0 0.0 0.0 16.28999089631971 0.0 0.0 0.0 34.279985188174585" Properties=species:S:1:pos:R:3:initial_magmoms:R:1 pbc="T T T"
Si       1.40424687       1.29557628      -1.38456938       0.00000000
Si      -1.34004798      -1.45433862      -1.28875676       0.00000000
Si       1.10609100       0.22338477       2.08415570       0.00000000
Si      -2.23423866       0.33684462       1.23421728       0.00000000
Si      -0.85180410       1.21671639       2.84424624       0.00000000
Si       0.42145488      -3.30820904       1.08112278       0.00000000
Si       0.90512127      -1.89381024       2.95215969       0.00000000
Si      -2.76793164       2.49482979       0.08799677       0.00000000
Si      -0.01708821       2.58514155      -2.74644539       0.00000000
Si       2.82688515       2.49302160       0.19889259       0.00000000
