10
Lattice="16.28999089631971 0.0 0.0 0.0 16.28999089631971 0.0 0.0 0.0 34.279985188174585" Properties=species:S:1:pos:R:3:initial_magmoms:R:1 pbc="T T T"
Si      -1.96467174      -1.19962818      -0.42246677       0.00000000
Si       1.75511718      -1.50039045      -0.43854410       0.00000000
Si      -0.10410939       0.66521844       2.25233341       0.00000000
Si      -0.01588275       1.78678494      -1.54493124       0.00000000
Si      -3.34617777       0.76499469      -0.33834364       0.00000000
Si      -1.31372334      -2.09688138      -2.59458497       0.00000000
Si       1.10754081      -2.43641385      -2.53939416       0.00000000
Si       1.66011390       3.22919928      -0.69478713       0.00000000
Si       3.69204705      -0.25738200       0.15861358       0.00000000
Si       1.53751536      -3.15707205       1.21896267       0.00000000
