10
Lattice="16.28999089631971 0.0 0.0 0.0 16.28999089631971 0.0 0.0 0.0 34.279985188174585" Properties=species:S:1:pos:R:3:initial_magmoms:R:1 pbc="T T T"
Si       1.35505107      -1.35549090       1.35933929       0.00000000
Si      -1.35687555      -1.35728280      -1.35693969       0.00000000
Si       1.35808101       1.35785295      -1.35721393       0.00000000
Si      -1.35573525       1.36080144       1.35858513       0.00000000
Si      -0.00144981      -2.70081684       2.72169523       0.00000000
Si       0.00057015      -2.71446786      -2.71432502       0.00000000
Si      -2.71450044       2.71451673      -0.00017140       0.00000000
Si      -2.71453302       0.00037467      -2.71456498       0.00000000
Si       2.71466334       2.71461447       0.00068560       0.00000000
Si       0.00102627       2.71507059      -2.71429074       0.00000000
