10
Lattice="16.28999089631971 0.0 0.0 0.0 16.28999089631971 0.0 0.0 0.0 34.279985188174585" Properties=species:S:1:pos:R:3:initial_magmoms:R:1 pbc="T T T"
Si      -2.12961614      -0.74898162       0.64220160       0.00000000
Si      -1.05827985       1.69248213      -1.31323269       0.00000000
Si       1.16884008      -1.76656579      -1.14488359       0.00000000
Si       1.23373944       1.08181890       2.27735781       0.00000000
Si       3.01169520       0.01492164      -1.12620098       0.00000000
Si      -1.23789339      -1.90684224       2.52530508       0.00000000
Si       3.14063055       1.24963848       0.86656423       0.00000000
Si      -0.53369298      -3.45646826      -0.58845055       0.00000000
Si      -1.60247988       3.24969210       0.53185427       0.00000000
Si      -2.61800663      -2.47694337      -0.93447292       0.00000000
