10
Lattice="16.28999089631971 0.0 0.0 0.0 16.28999089631971 0.0 0.0 0.0 34.279985188174585" Properties=species:S:1:pos:R:3:initial_magmoms:R:1 pbc="T T T"
Si      -1.56426354      -1.25556804       1.27626311       0.00000000
Si      -1.84945257       1.05340914      -1.06319433       0.00000000
Si       1.08452304       1.58052096       1.43254222       0.00000000
Si       1.84707423      -1.08654300      -1.28532876       0.00000000
Si       3.35036430       0.84414780      -1.17391875       0.00000000
Si       2.40254694       2.80194516      -0.05121433       0.00000000
Si       2.37869838       0.20996181       2.86867215       0.00000000
Si      -0.32206959      -2.53469142       2.83750477       0.00000000
Si      -2.91625209      -2.52420066      -0.35733477       0.00000000
Si      -3.64316076      -0.45032076      -1.51603319       0.00000000
