10
Lattice="16.28999089631971 0.0 0.0 0.0 16.28999089631971 0.0 0.0 0.0 34.279985188174585" Properties=species:S:1:pos:R:3:initial_magmoms:R:1 pbc="T T T"
Si      -1.34319195      -1.35509994      -1.36636669       0.00000000
Si       1.38116394      -1.29129201       1.39608746       0.00000000
Si       1.37098269       1.35765747      -1.36448129       0.00000000
Si      -1.38435678       1.32745581       1.45237522       0.00000000
Si       0.50712399       2.13029217       2.77174403       0.00000000
Si       2.35322082       0.47004795       2.71470210       0.00000000
Si      -2.68341912       2.70229923      -0.00613612       0.00000000
Si       0.01335780      -2.53188954       2.84979960       0.00000000
Si      -2.70050733      -2.72163546      -0.00195396       0.00000000
Si      -2.70195714      -0.00138465      -2.72512323       0.00000000
