10
Lattice="16.28999089631971 0.0 0.0 0.0 16.28999089631971 0.0 0.0 0.0 34.279985188174585" Properties=species:S:1:pos:R:3:initial_magmoms:R:1 pbc="T T T"
Si      -1.89682389      -0.79825887       1.05157341       0.00000000
Si       2.09365596       0.02208924       1.02932569       0.00000000
Si       0.24203682      -1.51549128      -1.76014110       0.00000000
Si      -0.38799522       2.28920831      -0.32219776       0.00000000
Si      -3.28274451       0.32696703      -0.63325452       0.00000000
Si       1.56752154       2.61917855      -1.62638053       0.00000000
Si       1.60963119      -3.06564768      -0.67853841       0.00000000
Si       1.58931756      -0.14138091       3.31600766       0.00000000
Si      -1.95846525       0.34437453       3.10655683       0.00000000
Si       0.25958115       3.22523171       1.77865231       0.00000000
