10
Lattice="16.28999089631971 0.0 0.0 0.0 16.28999089631971 0.0 0.0 0.0 34.279985188174585" Properties=species:S:1:pos:R:3:initial_magmoms:R:1 pbc="T T T"
Si      -1.36661697      -1.33961141       1.39433232       0.00000000
Si       1.34920296       1.37283975       1.39450372       0.00000000
Si      -1.31227353       1.40981805      -1.47099955       0.00000000
Si       1.37544615      -1.48707989      -1.53300179       0.00000000
Si       2.70488934      -2.68601244       0.03923346       0.00000000
Si      -2.70640431      -2.70995735       0.01025315       0.00000000
Si       2.70410742       2.73512358       0.01963216       0.00000000
Si       2.40275871       0.12543300      -3.00449296       0.00000000
Si      -2.72256399       2.72670165       0.02253910       0.00000000
Si      -0.00848709      -2.69934985       2.75493997       0.00000000
