10
Lattice="16.28999089631971 0.0 0.0 0.0 16.28999089631971 0.0 0.0 0.0 34.279985188174585" Properties=species:S:1:pos:R:3:initial_magmoms:R:1 pbc="T T T"
Si      -1.35607734      -1.35685926       1.35597985       0.00000000
Si       1.35852084       1.35690813       1.35697397       0.00000000
Si      -1.35785295       1.35710361      -1.35748817       0.00000000
Si       1.35736425      -1.35805658      -1.35786525       0.00000000
Si       2.71397916       2.71458189      -0.00010284       0.00000000
Si      -2.71272483      -0.00348606       2.71617614       0.00000000
Si       2.71355562       0.00089595       2.71538770       0.00000000
Si       2.71533123      -0.00092853      -2.71422218       0.00000000
Si      -0.00175932       2.71513575      -2.71473638       0.00000000
Si      -2.71523349       2.71479366      -0.00023996       0.00000000
