10
Lattice="16.28999089631971 0.0 0.0 0.0 16.28999089631971 0.0 0.0 0.0 34.279985188174585" Properties=species:S:1:pos:R:3:initial_magmoms:R:1 pbc="T T T"
Si      -0.45108639       2.23651926      -0.41166857       0.00000000
Si       0.05237235      -0.93631336      -2.17222104       0.00000000
Si      -1.95551676      -0.32997024       1.30418277       0.00000000
Si       1.67301558      -0.77217858       1.57773720       0.00000000
Si      -1.56752154      -2.61917855       1.62638053       0.00000000
Si      -1.92769344      -0.14147865      -3.13394656       0.00000000
Si      -1.30794039       0.60605316       3.40503283       0.00000000
Si       1.03426839       3.50681346       0.81925782       0.00000000
Si       0.52613442      -2.59708931       2.65570622       0.00000000
Si      -0.47825811      -3.22839197      -2.08449850       0.00000000
