10
Lattice="16.28999089631971 0.0 0.0 0.0 16.28999089631971 0.0 0.0 0.0 34.279985188174585" Properties=species:S:1:pos:R:3:initial_magmoms:R:1 pbc="T T T"
Si      -1.35552348       1.35426915      -1.35772813       0.00000000
Si      -1.35609363      -1.35803214       1.35724821       0.00000000
Si       1.35894438       1.35685926       1.35697397       0.00000000
Si       1.35899325      -1.35852084      -1.36143037       0.00000000
Si       0.01347183       2.71858923      -2.70223447       0.00000000
Si      -2.71143792       2.71453302       0.00027424       0.00000000
Si      -2.71347417      -0.00034209       2.71449642       0.00000000
Si       0.00193851       2.71378368       2.71480494       0.00000000
Si       0.00175932      -2.71513575       2.71473638       0.00000000
Si       2.71573848      -0.00055386       2.71463354       0.00000000
