10
Lattice="16.28999089631971 0.0 0.0 0.0 16.28999089631971 0.0 0.0 0.0 34.279985188174585" Properties=species:S:1:pos:R:3:initial_magmoms:R:1 pbc="T T T"
Si       1.48535478       1.27029420       1.23092640       0.00000000
Si       0.45108639      -2.23651926       0.41166857       0.00000000
Si      -2.07998865       1.03853637       0.50035094       0.00000000
Si       0.46897281       0.69690249      -2.23450780       0.00000000
Si      -1.50443037      -2.56648950       1.71585134       0.00000000
Si       0.37106991       2.98888920      -1.71184058       0.00000000
Si      -1.73465694       3.02985855      -0.71131009       0.00000000
Si       0.50345874      -3.17283262      -1.76055246       0.00000000
Si       1.80950949       3.27626109       0.09872641       0.00000000
Si      -1.27563732      -0.26080290      -3.59028198       0.00000000
