10
Lattice="16.28999089631971 0.0 0.0 0.0 16.28999089631971 0.0 0.0 0.0 34.279985188174585" Properties=species:S:1:pos:R:3:initial_magmoms:R:1 pbc="T T T"
Si      -1.18546891      -1.48911777      -1.39903009       0.00000000
Si       1.30602957      -1.38505725       1.61422141       0.00000000
Si       1.44226284       1.31732343      -1.56823619       0.00000000
Si      -1.39968106       1.33133283       1.60089677       0.00000000
Si       2.79425139       2.58595605       0.06536168       0.00000000
Si       2.58554391      -2.87640675       0.20376377       0.00000000
Si      -2.72195704       2.76697053      -0.05271922       0.00000000
Si      -2.83393450      -2.70220149       0.05748071       0.00000000
Si       2.67748467      -0.03367143       3.00857087       0.00000000
Si      -0.03830919       2.67924888       3.00874227       0.00000000
