10
Lattice="16.28999089631971 0.0 0.0 0.0 16.28999089631971 0.0 0.0 0.0 34.279985188174585" Properties=species:S:1:pos:R:3:initial_magmoms:R:1 pbc="T T T"
Si       1.35539316       1.35767376       1.35776241       0.00000000
Si       1.35700587      -1.35692442      -1.35783097       0.00000000
Si      -1.35793440       1.35816246      -1.35762529       0.00000000
Si      -1.35910728      -1.35785295       1.35752245       0.00000000
Si      -2.71337643       0.00074934      -2.71453070       0.00000000
Si       2.71379997      -2.71433754      -0.00017140       0.00000000
Si       2.71352304       0.00148239      -2.71483922       0.00000000
Si      -0.00193851      -2.71378368      -2.71480494       0.00000000
Si      -2.71541268      -2.71412577      -0.00030852       0.00000000
Si       0.00001629       2.71616202      -2.71374226       0.00000000
