10
Lattice="16.28999089631971 0.0 0.0 0.0 16.28999089631971 0.0 0.0 0.0 34.279985188174585" Properties=species:S:1:pos:R:3:initial_magmoms:R:1 pbc="T T T"
Si       1.35690813       1.35710361       1.35649405       0.00000000
Si      -1.35529542       1.35817875      -1.35800237       0.00000000
Si      -1.35795069      -1.35799956       1.35611697       0.00000000
Si       1.35711990      -1.36058967      -1.35909933       0.00000000
Si       0.01151703      -2.71135647      -2.70329715       0.00000000
Si      -0.00045612       2.71437012       2.71353658       0.00000000
Si       2.71350675      -2.71467963      -0.00109696       0.00000000
Si       2.71454931      -0.00037467       2.71398222       0.00000000
Si      -2.71541268      -0.00043983       2.71326234       0.00000000
Si      -2.71339272      -2.71541268      -0.00078844       0.00000000
