10
Lattice="16.28999089631971 0.0 0.0 0.0 16.28999089631971 0.0 0.0 0.0 34.279985188174585" Properties=species:S:1:pos:R:3:initial_magmoms:R:1 pbc="T T T"
Si       1.36028016       1.35226548      -1.37037745       0.00000000
Si      -1.35883035      -1.36024758      -1.37188577       0.00000000
Si       1.33542162      -1.31383737       1.45971115       0.00000000
Si      -1.34526078       1.41985269       1.38981422       0.00000000
Si      -2.71533123      -2.70557352      -0.00952984       0.00000000
Si       2.72844468       2.69389359       0.01148380       0.00000000
Si       2.71109583      -2.71971324       0.02091080       0.00000000
Si      -2.72642472       2.71114470      -0.00627324       0.00000000
Si       0.00078192       2.70985779      -2.73053947       0.00000000
Si      -2.71388142      -0.00475668      -2.73122507       0.00000000
