10
Lattice="16.28999089631971 0.0 0.0 0.0 16.28999089631971 0.0 0.0 0.0 34.279985188174585" Properties=species:S:1:pos:R:3:initial_magmoms:R:1 pbc="T T T"
Si       0.19556145      -1.78217487      -1.44407946       0.00000000
Si      -0.10751400       1.69463241      -1.56865300       0.00000000
Si      -2.20796289       0.00501732       0.74627569       0.00000000
Si       1.85494230      -0.22920030       1.46965235       0.00000000
Si      -1.12075200       3.31020945      -0.18329518       0.00000000
Si       3.53147652      -0.69199920      -0.15741378       0.00000000
Si      -2.43356310       2.22104376       1.49680211       0.00000000
Si       2.46138642      -2.22119037      -1.55041604       0.00000000
Si       1.19260719      -2.05076439       2.83595048       0.00000000
Si      -0.12859326      -3.78814176      -0.31187948       0.00000000
