10
Lattice="16.28999089631971 0.0 0.0 0.0 16.28999089631971 0.0 0.0 0.0 34.279985188174585" Properties=species:S:1:pos:R:3:initial_magmoms:R:1 pbc="T T T"
Si       1.27286802      -1.31315319       1.56137193       0.00000000
Si      -1.41433038      -1.42517952      -1.34140883       0.00000000
Si       1.90421955       0.74953548      -1.43914113       0.00000000
Si      -1.41188688       1.39003106       1.54650126       0.00000000
Si       2.66996358       2.61290853       0.00324632       0.00000000
Si       2.61133587      -2.71733490       0.21322163       0.00000000
Si      -2.73235428      -2.64660372       0.14234772       0.00000000
Si       2.64205881       0.04424364       2.93435123       0.00000000
Si      -2.85643521       2.72177297       0.21328676       0.00000000
Si      -0.06861348      -2.67051744       2.93524251       0.00000000
