10
Lattice="16.28999089631971 0.0 0.0 0.0 16.28999089631971 0.0 0.0 0.0 34.279985188174585" Properties=species:S:1:pos:R:3:initial_magmoms:R:1 pbc="T T T"
Si       1.35776044      -1.35562418      -1.35803665       0.00000000
Si      -1.35788912      -1.35692738       1.35666545       0.00000000
Si       1.35690847       1.35843710       1.35680257       0.00000000
Si      -1.35764477       1.35705245      -1.36091617       0.00000000
Si       2.72004264      -0.01484721      -2.69988971       0.00000000
Si       2.71347777      -2.71350971       0.00003428       0.00000000
Si       2.71455291       0.00063910       2.71350230       0.00000000
Si      -0.00011106      -2.71435679       2.71401650       0.00000000
Si      -2.71448774      -2.71425905      -0.00095984       0.00000000
Si       2.71567692       2.71385306      -0.00092556       0.00000000
