10
Lattice="16.28999089631971 0.0 0.0 0.0 16.28999089631971 0.0 0.0 0.0 34.279985188174585" Properties=species:S:1:pos:R:3:initial_magmoms:R:1 pbc="T T T"
Si       1.34951247       1.35020580      -1.34874677       0.00000000
Si      -1.48168953       1.21762863       1.35783097       0.00000000
Si      -1.36448298      -1.36239786      -1.34812973       0.00000000
Si       1.37513664      -1.32659244       1.38446654       0.00000000
Si      -0.38224485      -2.25000738       2.73105367       0.00000000
Si      -2.22834168      -0.58976316       2.78809559       0.00000000
Si      -0.06400341       2.45556993       2.87365848       0.00000000
Si       2.70671382      -0.00581553      -2.71027998       0.00000000
Si      -0.00570150       2.71038626      -2.70942298       0.00000000
Si       2.71166598       2.71642985       0.05121433       0.00000000
