10
Lattice="16.28999089631971 0.0 0.0 0.0 16.28999089631971 0.0 0.0 0.0 34.279985188174585" Properties=species:S:1:pos:R:3:initial_magmoms:R:1 pbc="T T T"
Si       0.69716313      -0.80659935       2.08244170       0.00000000
Si       0.91680120      -1.86197958      -1.14776311       0.00000000
Si      -2.19708117       0.74021760       0.55231943       0.00000000
Si       1.11019608       1.94268024      -0.86728411       0.00000000
Si      -2.43758673       2.42843568      -1.07673494       0.00000000
Si       3.07395558      -1.00300788      -1.62387809       0.00000000
Si      -0.43714215       3.65261126      -0.74713269       0.00000000
Si      -0.18230139      -2.07075222      -3.18173288       0.00000000
Si       3.01664736      -0.59696334       2.26731377       0.00000000
Si      -2.31888150      -1.09903743      -2.86639112       0.00000000
