10
Lattice="16.28999089631971 0.0 0.0 0.0 16.28999089631971 0.0 0.0 0.0 34.279985188174585" Properties=species:S:1:pos:R:3:initial_magmoms:R:1 pbc="T T T"
Si       1.35226548       1.35171162      -1.40122946       0.00000000
Si      -1.36215351      -1.36622405      -1.39996110       0.00000000
Si       1.60213779      -1.26167842       1.44044578       0.00000000
Si      -1.51951491       1.29599982       1.53152775       0.00000000
Si       2.70273906       2.69232975       0.00058276       0.00000000
Si      -2.72000646       2.70477531      -0.02543576       0.00000000
Si      -2.71166598      -2.71642985      -0.05121433       0.00000000
Si       2.71914309      -2.72959217      -0.03404004       0.00000000
Si      -0.00276930       2.70772380      -2.75964319       0.00000000
Si       2.70964602      -0.00766607      -2.75837483       0.00000000
