10
Lattice="16.28999089631971 0.0 0.0 0.0 16.28999089631971 0.0 0.0 0.0 34.279985188174585" Properties=species:S:1:pos:R:3:initial_magmoms:R:1 pbc="T T T"
Si      -2.11007628       0.84256767       0.73465477       0.00000000
Si       1.23265194       1.21225293       1.73744774       0.00000000
Si       0.73065115       0.83074113      -2.22206416       0.00000000
Si      -0.59763123      -2.42210308      -0.05049445       0.00000000
Si      -3.03547860       1.50557067      -1.38343814       0.00000000
Si       0.18305073       3.42137241       1.59669404       0.00000000
Si      -0.84913254      -3.13771301       2.26128049       0.00000000
Si       1.10345595       0.07024248       3.85135849       0.00000000
Si       2.30644313      -0.62763741      -3.29033194       0.00000000
Si      -1.92479382       2.67273288       2.39284714       0.00000000
