10
Lattice="16.28999089631971 0.0 0.0 0.0 16.28999089631971 0.0 0.0 0.0 34.279985188174585" Properties=species:S:1:pos:R:3:initial_magmoms:R:1 pbc="T T T"
Si      -2.12789754      -0.85669924      -0.31986672       0.00000000
Si      -0.14388957       1.58802739      -1.72308442       0.00000000
Si       1.57558509      -1.76842026      -0.35263840       0.00000000
Si       0.82896552       0.95431381       2.07987070       0.00000000
Si       2.11470264       2.63018014       0.76979178       0.00000000
Si      -1.87325226      -1.28553594      -2.62701385       0.00000000
Si      -1.82239488       2.99606983      -0.73547749       0.00000000
Si       3.48576582      -0.53597684      -1.02318957       0.00000000
Si      -2.27936196      -2.62657746       1.20031435       0.00000000
Si      -0.49475988       0.31574581      -3.68849419       0.00000000
