10
Lattice="16.28999089631971 0.0 0.0 0.0 16.28999089631971 0.0 0.0 0.0 34.279985188174585" Properties=species:S:1:pos:R:3:initial_magmoms:R:1 pbc="T T T"
Si      -1.36181142      -1.33582887      -1.38971138       0.00000000
Si      -1.19024514       1.48906890       1.46166511       0.00000000
Si       1.39287645       1.43856990      -1.41230190       0.00000000
Si       0.53369298      -2.15798517       1.14622051       0.00000000
Si       1.91612754      -1.27811340       2.75624947       0.00000000
Si       0.48438315       2.31915843       2.86645968       0.00000000
Si       2.76793164      -2.49482979      -0.08799677       0.00000000
Si       2.42297460       0.95128713       2.76917303       0.00000000
Si       0.03420900      -2.64380184      -2.81846768       0.00000000
Si      -2.66996684       0.07361451      -2.81781636       0.00000000
