10
Lattice="16.28999089631971 0.0 0.0 0.0 16.28999089631971 0.0 0.0 0.0 34.279985188174585" Properties=species:S:1:pos:R:3:initial_magmoms:R:1 pbc="T T T"
Si      -1.35545832      -1.35767376       1.35707681       0.00000000
Si      -1.35679410       1.35741312      -1.35765957       0.00000000
Si       1.35837423       1.35795069       1.35645977       0.00000000
Si       1.35834165      -1.35742941      -1.35765957       0.00000000
Si      -2.71379997       2.71433754       0.00017140       0.00000000
Si      -2.71024875      -0.00022806       2.71809582       0.00000000
Si      -2.71397916      -2.71458189       0.00010284       0.00000000
Si      -0.00042354      -2.71368594       2.71549054       0.00000000
Si       0.00135207      -2.71551042      -2.71411934       0.00000000
Si      -2.71573848       0.00055386      -2.71463354       0.00000000
