10
Lattice="16.28999089631971 0.0 0.0 0.0 16.28999089631971 0.0 0.0 0.0 34.279985188174585" Properties=species:S:1:pos:R:3:initial_magmoms:R:1 pbc="T T T"
Si      -1.34794863      -1.35747828      -1.39094546       0.00000000
Si       1.36583505       1.35351981      -1.38902578       0.00000000
Si      -1.37567421       1.40587587       1.43880034       0.00000000
Si       1.22565960      -1.51109298       1.54020060       0.00000000
Si      -2.71039536      -2.71787247      -0.01775704       0.00000000
Si      -2.71109583       2.71971324      -0.02091080       0.00000000
Si       2.74512564       2.69550630      -0.00884424       0.00000000
Si       2.71235016      -2.73031803       0.00826148       0.00000000
Si      -2.71060713      -0.00076563      -2.75134743       0.00000000
Si       0.00389331       2.71476108      -2.75110747       0.00000000
