10
Lattice="16.28999089631971 0.0 0.0 0.0 16.28999089631971 0.0 0.0 0.0 34.279985188174585" Properties=species:S:1:pos:R:3:initial_magmoms:R:1 pbc="T T T"
Si       1.35483930      -1.35281934      -1.36355573       0.00000000
Si      -1.36194174       1.36124127      -1.36208169       0.00000000
Si       1.37929059       1.34198649       1.38018153       0.00000000
Si      -1.36583505      -1.35351981       1.38902578       0.00000000
Si       2.71198564      -2.70927135      -0.00051420       0.00000000
Si      -2.71378368      -2.71099809      -0.00191968       0.00000000
Si      -0.00353493      -2.71077003      -2.72001550       0.00000000
Si       2.70940480       2.72210787      -0.00291380       0.00000000
Si       2.71235908       0.00431685      -2.71953558       0.00000000
Si      -2.71665072       2.71845891      -0.00226248       0.00000000
