10
Lattice="16.28999089631971 0.0 0.0 0.0 16.28999089631971 0.0 0.0 0.0 34.279985188174585" Properties=species:S:1:pos:R:3:initial_magmoms:R:1 pbc="T T T"
Si      -1.13093325      -0.37051605       2.06177086       0.00000000
Si       1.48241022       1.44207225       1.20802735       0.00000000
Si       0.62746052      -0.85543677      -2.15590375       0.00000000
Si      -1.41416748       1.19882997      -1.71684546       0.00000000
Si       1.88287055      -2.43612063       0.42726597       0.00000000
Si      -2.09359080       1.81965816       1.73045462       0.00000000
Si      -0.05957253       2.87736786       2.20053632       0.00000000
Si      -3.31097508       2.01614814      -0.32583144       0.00000000
Si       2.86085699       2.65048074      -0.28452404       0.00000000
Si       0.10718578       2.55370185      -2.98547986       0.00000000
