10
Lattice="16.28999089631971 0.0 0.0 0.0 16.28999089631971 0.0 0.0 0.0 34.279985188174585" Properties=species:S:1:pos:R:3:initial_magmoms:R:1 pbc="T T T"
Si       0.37462995       0.85397067      -2.18013972       0.00000000
Si      -2.10784455      -0.74863953       0.79615310       0.00000000
Si       0.62051283       2.03190057       1.21104399       0.00000000
Si       1.04960121      -2.20911948       0.14075370       0.00000000
Si      -1.79196516       1.80856467      -2.47117695       0.00000000
Si      -2.29312701      -2.57880474      -0.86203927       0.00000000
Si       1.83927851       2.62179405      -1.74183558       0.00000000
Si      -1.57555251      -0.66529989       3.24028313       0.00000000
Si       2.63662514       1.44568863       2.28287689       0.00000000
Si      -0.18305073      -3.42137241      -1.59669404       0.00000000
