10
Lattice="16.28999089631971 0.0 0.0 0.0 16.28999089631971 0.0 0.0 0.0 34.279985188174585" Properties=species:S:1:pos:R:3:initial_magmoms:R:1 pbc="T T T"
Si      -1.34560287      -1.35076680      -1.34419781       0.00000000
Si       1.35638685      -1.35408996       1.35800237       0.00000000
Si      -1.35711990       1.36058967       1.35909933       0.00000000
Si       1.37393118       1.34522820      -1.38600571       0.00000000
Si      -0.03246597       2.67195096      -2.72092392       0.00000000
Si      -2.75833683      -0.06820623      -2.63675966       0.00000000
Si      -0.00013032      -2.71249677       2.71501062       0.00000000
Si       2.71580364      -2.71225242      -0.00524484       0.00000000
Si       0.00154755      -2.64640824      -2.78089336       0.00000000
Si      -2.71459818      -2.71508688       0.00030852       0.00000000
