10
Lattice="16.28999089631971 0.0 0.0 0.0 16.28999089631971 0.0 0.0 0.0 34.279985188174585" Properties=species:S:1:pos:R:3:initial_magmoms:R:1 pbc="T T T"
Si       1.33011421       1.38012138      -1.38309534       0.00000000
Si      -1.23440733       1.32859611       1.51685591       0.00000000
Si      -1.37929059      -1.34198649      -1.38018153       0.00000000
Si       1.42367842      -1.37938833       1.57355504       0.00000000
Si       2.69762793      -2.69806383      -0.00497060       0.00000000
Si       2.68749881       2.73342942      -0.00596472       0.00000000
Si       2.69085780       0.02050911      -2.74284599       0.00000000
Si      -0.02445129      -2.69480583      -2.74373727       0.00000000
Si      -2.74512564      -2.69550630       0.00884424       0.00000000
Si      -2.72777679       2.71810053      -0.00058276       0.00000000
