10
Lattice="16.28999089631971 0.0 0.0 0.0 16.28999089631971 0.0 0.0 0.0 34.279985188174585" Properties=species:S:1:pos:R:3:initial_magmoms:R:1 pbc="T T T"
Si       0.94258990       2.14816230      -0.10767349       0.00000000
Si       1.57579197      -1.45837854      -1.06826778       0.00000000
Si      -1.52669458       0.51147342      -1.81629175       0.00000000
Si      -0.73065115      -0.83074113       2.22206416       0.00000000
Si       1.08664888       2.32406172      -2.67003526       0.00000000
Si      -3.51164737      -0.54926622      -1.23839944       0.00000000
Si      -0.17297048       3.44460195       1.63861849       0.00000000
Si       0.66141635      -3.61105806      -1.11763098       0.00000000
Si      -3.76612975       0.67482954       0.83862603       0.00000000
Si      -0.39576133       0.88198947      -3.87806261       0.00000000
