10
Lattice="16.28999089631971 0.0 0.0 0.0 16.28999089631971 0.0 0.0 0.0 34.279985188174585" Properties=species:S:1:pos:R:3:initial_magmoms:R:1 pbc="T T T"
Si      -1.36816452      -1.34162811      -1.38186126       0.00000000
Si       1.34262180       1.37542986      -1.38268398       0.00000000
Si      -1.34426709       1.41071400       1.35035793       0.00000000
Si       1.49336946      -1.38950442       1.51743867       0.00000000
Si       0.27399780       2.64691323       2.69146026       0.00000000
Si      -2.72844468      -2.69389359      -0.01148380       0.00000000
Si       2.71140534       2.72414412      -0.01693432       0.00000000
Si      -0.01345554      -2.69884575      -2.74168047       0.00000000
Si       2.72777679      -2.71810053       0.00058276       0.00000000
Si       2.70350469       0.01677870      -2.74294883       0.00000000
