10
Lattice="16.28999089631971 0.0 0.0 0.0 16.28999089631971 0.0 0.0 0.0 34.279985188174585" Properties=species:S:1:pos:R:3:initial_magmoms:R:1 pbc="T T T"
Si      -1.39849650       1.31300658       1.33061265       0.00000000
Si       1.14842097       1.43045748      -1.52511739       0.00000000
Si       1.64629413      -0.78613911       1.56224264       0.00000000
Si      -1.42970814      -1.37810142      -1.45018130       0.00000000
Si      -2.72914515      -0.65759472       1.85550808       0.00000000
Si       3.01642649       1.25485128       1.20086283       0.00000000
Si       2.50515343      -2.61700479       0.05532793       0.00000000
Si      -2.64907980       2.65831623      -0.27615972       0.00000000
Si       2.21861396       3.12044724      -0.14517582       0.00000000
Si      -2.91281490      -2.55800241       0.06989693       0.00000000
