10
Lattice="16.28999089631971 0.0 0.0 0.0 16.28999089631971 0.0 0.0 0.0 34.279985188174585" Properties=species:S:1:pos:R:3:initial_magmoms:R:1 pbc="T T T"
Si       1.04638815      -0.67290732      -1.97182013       0.00000000
Si      -0.90073926      -1.99974411       0.84777879       0.00000000
Si      -0.50831316       2.30588208      -0.30944560       0.00000000
Si       1.22289030      -3.09151620       0.88939471       0.00000000
Si      -2.87151975       0.47602638       1.87388216       0.00000000
Si      -1.36638891      -0.95338854       3.09425031       0.00000000
Si       0.49759434       1.04673024      -3.37424939       0.00000000
Si      -2.03014125      -2.62751184      -1.39320794       0.00000000
Si      -2.50097112       2.25341199      -1.48051911       0.00000000
Si       3.40492670      -0.33370065      -1.71379454       0.00000000
