10
Lattice="16.28999089631971 0.0 0.0 0.0 16.28999089631971 0.0 0.0 0.0 34.279985188174585" Properties=species:S:1:pos:R:3:initial_magmoms:R:1 pbc="T T T"
Si       1.35231388       1.35264015      -1.35942499       0.00000000
Si       1.35384574      -1.35604476       1.35909933       0.00000000
Si      -1.35928647       1.35884664       1.35913361       0.00000000
Si      -1.34366436      -1.37104785      -1.38446311       0.00000000
Si      -0.09027918       2.66807394      -2.69281089       0.00000000
Si       2.71236386       0.00118917       2.71686174       0.00000000
Si      -0.00234576      -2.71386513       2.71627898       0.00000000
Si       2.71296171       2.71748151       0.00205680       0.00000000
Si       2.71489207      -2.71639008      -0.00315376       0.00000000
Si      -0.00268785       2.71617831       2.71675890       0.00000000
