10
Lattice="16.28999089631971 0.0 0.0 0.0 16.28999089631971 0.0 0.0 0.0 34.279985188174585" Properties=species:S:1:pos:R:3:initial_magmoms:R:1 pbc="T T T"
Si       1.64782865       1.19915577      -1.11308168       0.00000000
Si      -1.27171143       1.41891185       1.33568952       0.00000000
Si       1.44259306      -1.31543379       1.33338590       0.00000000
Si      -1.55000979      -1.10895804      -1.48439416       0.00000000
Si      -2.60115462       2.61784440      -0.23654574       0.00000000
Si      -2.62905939       0.04917951       2.69455917       0.00000000
Si       0.09027918      -2.66807394       2.69281089       0.00000000
Si      -2.65978233      -2.71239903      -0.02657043       0.00000000
Si      -0.09350460      -2.09388402      -3.20764998       0.00000000
Si      -3.36689865       0.75447135      -1.67893318       0.00000000
