10
Lattice="16.28999089631971 0.0 0.0 0.0 16.28999089631971 0.0 0.0 0.0 34.279985188174585" Properties=species:S:1:pos:R:3:initial_magmoms:R:1 pbc="T T T"
Si       1.34995187       1.36094805      -1.36698373       0.00000000
Si      -1.36878354      -1.34871426      -1.36574965       0.00000000
Si      -1.11700530       1.46791375       1.47448583       0.00000000
Si       1.36009323      -1.30508964       1.45943691       0.00000000
Si      -2.43740754      -0.07723089       2.70839458       0.00000000
Si       2.43028622       0.38490012       2.83937848       0.00000000
Si       2.70387026      -2.70881523       0.01155236       0.00000000
Si       2.70665422       0.00807984      -2.72591167       0.00000000
Si      -0.00790065      -2.70736542      -2.72601451       0.00000000
Si      -2.71140534      -2.72414412       0.01693432       0.00000000
