10
Lattice="16.28999089631971 0.0 0.0 0.0 16.28999089631971 0.0 0.0 0.0 34.279985188174585" Properties=species:S:1:pos:R:3:initial_magmoms:R:1 pbc="T T T"
Si      -2.25860850       0.04267980      -0.60411652       0.00000000
Si       0.91724103       0.48747825      -2.10372959       0.00000000
Si       0.36354393       1.72683774       1.60814356       0.00000000
Si       0.88150077      -2.04395517       0.88785211       0.00000000
Si      -3.19165083      -0.70079580       1.39715014       0.00000000
Si       0.38400417      -1.53093420      -3.35570391       0.00000000
Si       3.27626828       0.37866105      -1.83922507       0.00000000
Si       2.98697580      -1.49346720       1.77381882       0.00000000
Si       0.33422193       2.83471317      -2.57034901       0.00000000
Si       2.27372466       2.95928117       0.93759240       0.00000000
