10
Lattice="16.28999089631971 0.0 0.0 0.0 16.28999089631971 0.0 0.0 0.0 34.279985188174585" Properties=species:S:1:pos:R:3:initial_magmoms:R:1 pbc="T T T"
Si       1.36137186       1.34791605       1.40784550       0.00000000
Si      -1.35531211      -1.36422234       1.40729702       0.00000000
Si       1.39968106      -1.33133283      -1.60089677       0.00000000
Si      -1.32227599       1.43563770      -1.65361599       0.00000000
Si      -2.69718457       2.69325828       0.02653615       0.00000000
Si       2.70571063      -2.71639008       0.01332464       0.00000000
Si       2.73052030       2.69200395       0.02514096       0.00000000
Si      -2.71629274      -2.71756296       0.03427658       0.00000000
Si       0.00032554       2.70826137       2.77009859       0.00000000
Si      -2.71472890      -0.00605988       2.77054423       0.00000000
