10
Lattice="16.28999089631971 0.0 0.0 0.0 16.28999089631971 0.0 0.0 0.0 34.279985188174585" Properties=species:S:1:pos:R:3:initial_magmoms:R:1 pbc="T T T"
Si      -1.35710198      -1.35710361       1.35707681       0.00000000
Si      -1.35445486       1.35509994      -1.36259589       0.00000000
Si       1.35790182       1.35788553       1.35711109       0.00000000
Si       1.36133901      -1.35782037      -1.36276729       0.00000000
Si      -2.71400264      -2.71505430       0.00017140       0.00000000
Si      -2.71438468       0.00039096       2.71525058       0.00000000
Si       0.00058644      -2.71450044       2.71518202       0.00000000
Si       2.71497285       2.71484253      -0.00030852       0.00000000
Si       0.00058644       2.71515204       2.71497634       0.00000000
Si       2.71555929       0.00022806       2.71473638       0.00000000
