10
Lattice="16.28999089631971 0.0 0.0 0.0 16.28999089631971 0.0 0.0 0.0 34.279985188174585" Properties=species:S:1:pos:R:3:initial_magmoms:R:1 pbc="T T T"
Si       1.35718180       1.35658233      -1.35714537       0.00000000
Si       1.35654649      -1.35721764       1.35810521       0.00000000
Si      -1.35778932      -1.35817875      -1.35687113       0.00000000
Si      -1.36074359       1.35961227       1.35975065       0.00000000
Si       2.71452976       2.71345788      -0.00061704       0.00000000
Si      -0.00038770       2.71410948      -2.71470210       0.00000000
Si      -2.71512990       2.71437012      -0.00068560       0.00000000
Si       2.71449718      -0.00068418      -2.71501062       0.00000000
Si       2.71400848      -2.71570590       0.00037708       0.00000000
Si      -2.71509732      -0.00094482      -2.71528486       0.00000000
