10
Lattice="16.28999089631971 0.0 0.0 0.0 16.28999089631971 0.0 0.0 0.0 34.279985188174585" Properties=species:S:1:pos:R:3:initial_magmoms:R:1 pbc="T T T"
Si      -1.98083861       0.00974142      -1.21076975       0.00000000
Si       0.21281256       2.32635861      -0.07089105       0.00000000
Si      -0.19694610      -0.83857662       2.17671172       0.00000000
Si       1.86276150      -1.35808101      -0.46401414       0.00000000
Si      -1.94395805      -2.29164462      -1.57773720       0.00000000
Si       3.14918280      -0.44272962       1.26866868       0.00000000
Si      -1.66159466      -2.60640000       1.73840758       0.00000000
Si       1.16522370       2.99661066       1.94662433       0.00000000
Si      -3.75240869       0.39876291       0.30392652       0.00000000
Si       1.16623368       3.03070563      -2.10201559       0.00000000
