10
Lattice="16.28999089631971 0.0 0.0 0.0 16.28999089631971 0.0 0.0 0.0 34.279985188174585" Properties=species:S:1:pos:R:3:initial_magmoms:R:1 pbc="T T T"
Si      -0.50474565       0.00167787       2.29617753       0.00000000
Si      -2.01611230       0.58621194      -1.07183290       0.00000000
Si       0.73961487      -2.25295587      -0.08408885       0.00000000
Si       1.88475300       1.10205108      -0.95192144       0.00000000
Si       2.63551023      -1.75669731       1.16774835       0.00000000
Si       1.38740301       0.49637259      -3.18519516       0.00000000
Si      -2.86328420      -0.33752880       2.03815194       0.00000000
Si       3.55830615       0.29419740       0.50761830       0.00000000
Si      -3.41207801       1.38210876       0.63572268       0.00000000
Si      -2.63662514      -1.44568863      -2.28287689       0.00000000
