10
Lattice="16.28999089631971 0.0 0.0 0.0 16.28999089631971 0.0 0.0 0.0 34.279985188174585" Properties=species:S:1:pos:R:3:initial_magmoms:R:1 pbc="T T T"
Si      -1.17434610       1.72862964       1.11180338       0.00000000
Si       1.84945257      -1.05340914       1.06319433       0.00000000
Si      -1.79370819      -1.50372990      -0.45283886       0.00000000
Si      -1.21050990      -0.95996970      -2.90471617       0.00000000
Si       0.28518903      -2.30897718       2.33945745       0.00000000
Si       1.30049586       2.29596147      -2.16419951       0.00000000
Si      -2.25658854       2.25614871      -1.26260112       0.00000000
Si       0.99764847       0.12140937      -3.39265775       0.00000000
Si      -2.56624841       0.49857174       2.53590244       0.00000000
Si      -1.06679952      -3.57760980       0.70585957       0.00000000
