10
Lattice="10.86 0.0 0.0 0.0 10.86 0.0 0.0 0.0 10.86" Properties=species:S:1:pos:R:3:initial_magmoms:R:1 pbc="T T T"
Si      -1.25411280       1.27772244       1.18208928       0.00000000
Si       1.46088720      -1.43727756       1.18208928       0.00000000
Si      -1.25411280      -1.43727756      -1.53291072       0.00000000
Si      -2.61161280      -0.07977756       2.53958928       0.00000000
Si       2.70802788       2.44182756      -0.28803978       0.00000000
Si       0.10338720       2.63522244       2.53958928       0.00000000
Si      -2.61161280       2.63522244      -0.17541072       0.00000000
Si       0.10338720      -2.79477756       2.53958928       0.00000000
Si       2.81838720      -0.07977756       2.53958928       0.00000000
Si      -2.61161280      -2.79477756      -0.17541072       0.00000000
