10
Lattice="10.86 0.0 0.0 0.0 10.86 0.0 0.0 0.0 10.86" Properties=species:S:1:pos:R:3:initial_magmoms:R:1 pbc="T T T"
Si       1.62826152       0.94432044      -1.08109128       0.00000000
Si      -1.08673848       0.94432044       1.63390872       0.00000000
Si      -1.08673848      -1.77067956      -1.08109128       0.00000000
Si       0.27076152       2.30182044      -2.43859128       0.00000000
Si      -2.44423848       2.30182044       0.27640872       0.00000000
Si      -2.44423848      -0.41317956      -2.43859128       0.00000000
Si       2.98576152       2.30182044       0.27640872       0.00000000
Si       0.27076152       2.30182044       2.99140872       0.00000000
Si       2.98576152      -0.41317956      -2.43859128       0.00000000
Si      -2.44423848      -0.41317956       2.99140872       0.00000000
