10
Lattice="10.86 0.0 0.0 0.0 10.86 0.0 0.0 0.0 10.86" Properties=species:S:1:pos:R:3:initial_magmoms:R:1 pbc="T T T"
Si       1.22205408       1.25116974       1.30235292       0.00000000
Si       1.22767956      -1.32754812      -1.57248456       0.00000000
Si      -1.49294592       1.25116974      -1.41264708       0.00000000
Si      -1.49294592      -1.46383026       1.30235292       0.00000000
Si       2.49327138       2.59206480      -0.02635722       0.00000000
Si       2.39844186      -2.82508782      -0.02971296       0.00000000
Si       2.57955408      -0.10633026       2.65985292       0.00000000
Si      -0.13544592       2.60866974       2.65985292       0.00000000
Si       0.02081862       2.50079736      -2.90718942       0.00000000
Si      -2.85044592       2.60866974      -0.05514708       0.00000000
