10
Lattice="10.86 0.0 0.0 0.0 10.86 0.0 0.0 0.0 10.86" Properties=species:S:1:pos:R:3:initial_magmoms:R:1 pbc="T T T"
Si       1.27407348      -1.36764324       1.41924996       0.00000000
Si      -1.41901104       1.34317566       1.30145154       0.00000000
Si       1.35750000       1.35750000      -1.35750000       0.00000000
Si      -1.35750000      -1.35750000      -1.35750000       0.00000000
Si       0.12961410       1.62665424       3.06646218       0.00000000
Si       2.71500000       2.71500000       0.00000000       0.00000000
Si       2.71500000       0.00000000      -2.71500000       0.00000000
Si       0.00000000      -2.71500000      -2.71500000       0.00000000
Si      -2.71500000       0.00000000      -2.71500000       0.00000000
Si       0.00000000      -2.71500000       2.71500000       0.00000000
