10
Lattice="10.86 0.0 0.0 0.0 10.86 0.0 0.0 0.0 10.86" Properties=species:S:1:pos:R:3:initial_magmoms:R:1 pbc="T T T"
Si      -1.27407348      -1.34735676       1.29575004       0.00000000
Si      -1.27407348       1.36764324      -1.41924996       0.00000000
Si       1.44092652      -1.34735676      -1.41924996       0.00000000
Si      -1.14445938       2.99429748       1.64721222       0.00000000
Si      -2.58776424      -0.11797218       2.65791984       0.00000000
Si       2.66596710       2.62011618      -0.02223042       0.00000000
Si      -2.63157348      -2.70485676      -0.06174996       0.00000000
Si       2.66122128       0.38538882       2.65608450       0.00000000
Si       0.08342652      -2.70485676       2.65325004       0.00000000
Si      -2.69308452       2.71081890      -0.11779842       0.00000000
