10
Lattice="16.290000149 0.0 0.0 0.0 16.290000149 0.0 0.0 0.0 29.1751946751" Properties=species:S:1:pos:R:3:initial_magmoms:R:1 pbc="T T T"
H        0.44942481       1.28788741      -0.65667528       0.00000000
Si      -0.81425566       0.98435584       1.94414745       0.00000000
Si      -1.87879088      -0.70504750      -1.27513106       0.00000000
Si       2.00977877      -1.37407780      -0.08402456       0.00000000
H        0.95112424      -0.24241149      -2.48237144       0.00000000
H       -0.66756421      -2.66719430      -1.04893577       0.00000000
Si       3.16009713       0.69263452      -0.67313009       0.00000000
Si      -2.31765977       2.29576601       0.65075272       0.00000000
Si       0.77519224      -2.96285781      -1.49134843       0.00000000
Si       1.99752869       0.85390552      -2.69365820       0.00000000
