10
Lattice="16.290000149 0.0 0.0 0.0 16.290000149 0.0 0.0 0.0 29.1751946751" Properties=species:S:1:pos:R:3:initial_magmoms:R:1 pbc="T T T"
Si       1.32842996      -1.36068742       1.37397662       0.00000000
Si      -1.37009001      -1.36930483      -1.32481641       0.00000000
Si      -1.36525188       1.35151615       1.34979038       0.00000000
Si       1.36777031       1.36493911      -1.34430544       0.00000000
Si      -2.69498830       0.01427004      -2.68478894       0.00000000
Si       0.00964531      -2.71740823      -2.66602929       0.00000000
Si       2.68406749       0.00697212       2.71171764       0.00000000
Si      -0.02267568       2.71223615       2.70410292       0.00000000
Si       2.72669842       0.00941562      -2.69850128       0.00000000
Si      -2.70155317       2.72683200      -0.00353020       0.00000000
