10
Lattice="16.290000149 0.0 0.0 0.0 16.290000149 0.0 0.0 0.0 29.1751946751" Properties=species:S:1:pos:R:3:initial_magmoms:R:1 pbc="T T T"
Si      -1.34289874       1.35811360      -1.36863756       0.00000000
Si       1.32781094      -1.34869798      -1.39498276       0.00000000
Si       1.34868984       1.37780821       1.35063646       0.00000000
Si      -1.34429968      -1.37083609       1.36347355       0.00000000
Si       2.66670560      -2.70720254      -0.03130498       0.00000000
Si      -2.68736132       2.72282465      -0.01820532       0.00000000
Si      -2.70992297      -2.71013474      -0.00886926       0.00000000
Si      -2.72808632      -0.02746494       2.69902643       0.00000000
Si       2.71922456       0.03660363       2.70947115       0.00000000
Si       0.00498068       2.71207325      -2.72572174       0.00000000
