10
Lattice="16.290000149 0.0 0.0 0.0 16.290000149 0.0 0.0 0.0 29.1751946751" Properties=species:S:1:pos:R:3:initial_magmoms:R:1 pbc="T T T"
Si       1.71939323      -0.76088962      -1.37972413       0.00000000
Si       1.35870004       1.34423452       1.34313844       0.00000000
Si      -1.43769840       1.18679167      -1.44606852       0.00000000
Si      -1.19142618      -1.69186313       1.19139825       0.00000000
Si      -1.67009969      -0.66728728      -2.88262593       0.00000000
Si       0.64026217      -0.84680308      -3.47817918       0.00000000
Si       2.56789046      -2.60501537      -0.25604151       0.00000000
Si      -2.65125796      -0.41226732       2.53713328       0.00000000
Si      -0.08604378       2.53949699       2.70002364       0.00000000
Si       2.63845874      -0.15094314       2.68093227       0.00000000
