10
Lattice="16.290000149 0.0 0.0 0.0 16.290000149 0.0 0.0 0.0 29.1751946751" Properties=species:S:1:pos:R:3:initial_magmoms:R:1 pbc="T T T"
Si       1.34297205      -1.33924978       1.37491022       0.00000000
Si      -1.26912980       1.35879778       1.42637527       0.00000000
Si       1.34546442       1.36899532      -1.35752181       0.00000000
Si      -1.37889150      -1.36225126      -1.33178929       0.00000000
Si       2.66330914       0.11751606       2.64884510       0.00000000
Si       0.01897296      -2.69941104      -2.67802029       0.00000000
Si      -2.66021404       2.71665074       0.07655571       0.00000000
Si      -2.68256392       0.01925478      -2.70509488       0.00000000
Si      -0.06514860      -2.63539460       2.75728930       0.00000000
Si       2.72223007       0.02259423      -2.71527702       0.00000000
