10
Lattice="16.290000149 0.0 0.0 0.0 16.290000149 0.0 0.0 0.0 29.1751946751" Properties=species:S:1:pos:R:3:initial_magmoms:R:1 pbc="T T T"
Si       1.38378664      -1.34337115      -1.33555289       0.00000000
Si      -1.29689578       1.30398193      -1.46001427       0.00000000
Si       1.38784285       1.35713620       1.33138083       0.00000000
Si      -1.34912152      -1.39064473       1.34520988       0.00000000
Si      -2.77845501       0.05365926       2.46652931       0.00000000
Si      -2.65903301       2.67359627      -0.19763277       0.00000000
Si       2.71189406      -0.01640403       2.66600011       0.00000000
Si       0.01816335      -2.68266980      -2.70789569       0.00000000
Si      -2.70953201      -2.69907383      -0.04323764       0.00000000
Si       2.72808632       0.02746494      -2.69902643       0.00000000
