10
Lattice="16.290000149 0.0 0.0 0.0 16.290000149 0.0 0.0 0.0 29.1751946751" Properties=species:S:1:pos:R:3:initial_magmoms:R:1 pbc="T T T"
Si      -1.29910633      -1.29038304       1.47185940       0.00000000
Si      -1.45094543       1.38471517      -1.22472507       0.00000000
Si       1.36231805       1.39558060       1.31755179       0.00000000
Si       1.43168087      -1.30703142      -1.35261454       0.00000000
Si      -2.62270143      -2.62690034       0.13361656       0.00000000
Si      -0.13174863       2.71344161      -2.58845653       0.00000000
Si       0.08666524      -2.51749165      -2.83854222       0.00000000
Si       2.71100300      -2.68060097       0.03406204       0.00000000
Si       2.65626860       0.04235400       2.74912024       0.00000000
Si       0.01205818       2.72202644       2.72429215       0.00000000
