10
Lattice="16.290000149 0.0 0.0 0.0 16.290000149 0.0 0.0 0.0 29.1751946751" Properties=species:S:1:pos:R:3:initial_magmoms:R:1 pbc="T T T"
Si       1.34486983       1.37468053      -1.31597633       0.00000000
Si       1.54626310      -1.32760243       1.18086600       0.00000000
Si      -1.36454815       1.37280718       1.34491812       0.00000000
Si      -1.40641345      -1.32809113      -1.35787191       0.00000000
Si       2.57114846       2.80949397       0.11185770       0.00000000
Si      -0.05546745       2.71542411      -2.67705751       0.00000000
Si       2.62941779      -2.74779723      -0.31719272       0.00000000
Si       2.64929159       0.02878443      -2.74859509       0.00000000
Si      -2.70866864       0.07369596       2.70935445       0.00000000
Si      -2.78207139      -2.65079027       0.00408453       0.00000000
