10
Lattice="16.290000149 0.0 0.0 0.0 16.290000149 0.0 0.0 0.0 29.1751946751" Properties=species:S:1:pos:R:3:initial_magmoms:R:1 pbc="T T T"
H        0.33392871      -1.06264558       1.34856502       0.00000000
Si       1.13002102      -1.39665574      -1.51737270       0.00000000
Si      -1.44666767       1.25089282      -1.41972332       0.00000000
Si       1.49594329       1.39628107       1.26792479       0.00000000
Si      -1.61101748      -1.15818643       1.36382365       0.00000000
H       -0.05957253      -2.65437407       0.78781778       0.00000000
H        2.00904572      -2.25284186      -0.64532613       0.00000000
H       -2.67606405      -0.09314622       1.58975636       0.00000000
Si      -0.22590972      -1.02021013       3.38085073       0.00000000
Si       0.09674631       2.86277205       2.47265610       0.00000000
