10
Lattice="16.290000149 0.0 0.0 0.0 16.290000149 0.0 0.0 0.0 29.1751946751" Properties=species:S:1:pos:R:3:initial_magmoms:R:1 pbc="T T T"
Si       0.60435901       0.52084017      -2.18376332       0.00000000
Si      -2.29977335      -0.05546745       0.45807973       0.00000000
Si       0.76947445       2.04517694       0.88071160       0.00000000
Si       1.22153824      -1.87113621       0.95216165       0.00000000
Si       1.69396454       1.00455544       2.71670660       0.00000000
Si       3.02756169      -0.54175653       1.55956003       0.00000000
Si       1.28857159      -1.53042759      -2.95133352       0.00000000
Si      -0.24552288      -0.02274084       3.61833682       0.00000000
Si      -2.44991828       0.35888499       2.81604814       0.00000000
Si      -3.17436717       2.01416078      -0.34473410       0.00000000
