10
Lattice="16.290000149 0.0 0.0 0.0 16.290000149 0.0 0.0 0.0 29.1751946751" Properties=species:S:1:pos:R:3:initial_magmoms:R:1 pbc="T T T"
Si       1.53622846      -1.27231417      -1.19702906       0.00000000
Si       1.39813813       1.32064660       1.36338602       0.00000000
Si      -1.21443580      -1.43534449       1.44290593       0.00000000
Si      -1.46986300       1.20764287      -1.45718427       0.00000000
H        0.36061173      -1.81372862      -2.25074957       0.00000000
Si      -2.66812283       2.68074758      -0.02748303       0.00000000
Si       2.85748252       2.50010777      -0.05304050       0.00000000
Si      -2.64662003      -0.06361245       2.72582385       0.00000000
Si      -0.13571199       2.53680914      -2.85552218       0.00000000
Si       0.06766866       2.76045456       2.67762351       0.00000000
