10
Lattice="16.290000149 0.0 0.0 0.0 16.290000149 0.0 0.0 0.0 29.1751946751" Properties=species:S:1:pos:R:3:initial_magmoms:R:1 pbc="T T T"
Si       0.89725321      -1.42208443       1.58920203       0.00000000
Si      -2.23306580       0.51634413      -0.32670383       0.00000000
Si       0.56615896      -1.03369825      -2.01014174       0.00000000
Si       1.24559857       1.78567887      -0.84106251       0.00000000
H       -0.00770517      -1.49789809       2.80817084       0.00000000
Si       0.60230647       1.11421972      -2.98861942       0.00000000
Si       2.78707242      -0.08522928       1.97898263       0.00000000
Si       3.30436137       1.17325794       0.04796402       0.00000000
Si      -1.05393043      -2.72184725      -2.07774066       0.00000000
Si       1.17856522       1.44497025       3.06243266       0.00000000
