10
Lattice="16.290000149 0.0 0.0 0.0 16.290000149 0.0 0.0 0.0 29.1751946751" Properties=species:S:1:pos:R:3:initial_magmoms:R:1 pbc="T T T"
Si       1.34767171      -1.34794864      -1.36586591       0.00000000
Si      -1.35389449      -1.37441989       1.34287586       0.00000000
Si      -1.35588187       1.32978529      -1.38765978       0.00000000
Si       1.36562329       1.33929865       1.37234281       0.00000000
Si      -0.01816335       2.68266980       2.70789569       0.00000000
Si      -2.72769536      -0.01640403       2.66465806       0.00000000
Si       2.68397300      -2.72326448      -0.01254533       0.00000000
Si      -0.01101204      -2.71319726      -2.69710087       0.00000000
Si      -2.73486296       2.67641444      -0.06579006       0.00000000
Si       2.70992297       2.71013474       0.00886926       0.00000000
