10
Lattice="16.290000149 0.0 0.0 0.0 16.290000149 0.0 0.0 0.0 29.1751946751" Properties=species:S:1:pos:R:3:initial_magmoms:R:1 pbc="T T T"
H       -0.64690849      -0.82575640       1.07708984       0.00000000
Si       1.23779566      -1.36585135      -1.41806034       0.00000000
Si      -1.57859875       1.08737380      -1.32116952       0.00000000
Si       1.27454590       1.46386828       1.29762513       0.00000000
H       -2.08438697      -1.73495018       0.52690402       0.00000000
Si      -3.18089946       1.01475298       0.46928301       0.00000000
H       -1.27736407      -2.48287295       2.17970797       0.00000000
Si       2.50849712      -0.02490741       2.65893972       0.00000000
Si      -0.28321794       2.67559994      -2.60169799       0.00000000
Si       2.56184687      -2.73939159      -0.08344106       0.00000000
