10
Lattice="16.290000149 0.0 0.0 0.0 16.290000149 0.0 0.0 0.0 29.1751946751" Properties=species:S:1:pos:R:3:initial_magmoms:R:1 pbc="T T T"
Si      -1.43435080       1.34626751      -1.26130202       0.00000000
Si      -1.38003994      -1.34358292       1.33482351       0.00000000
Si       1.34623819       1.38803507       1.33960824       0.00000000
Si       1.35395965      -1.32890563      -1.40169305       0.00000000
Si      -0.09961335       2.68623731      -2.58877629       0.00000000
Si      -0.01109349      -2.69167817       2.67626978       0.00000000
Si       2.69980688      -2.67361256      -0.03594384       0.00000000
Si       2.70627401       0.03497463       2.69199521       0.00000000
Si      -2.73088821       0.03298725       2.68330100       0.00000000
Si      -0.06833655      -2.78904351      -2.62615263       0.00000000
