10
Lattice="16.290000149 0.0 0.0 0.0 16.290000149 0.0 0.0 0.0 29.1751946751" Properties=species:S:1:pos:R:3:initial_magmoms:R:1 pbc="T T T"
Si      -0.56615896       1.03369825       2.01014174       0.00000000
Si      -1.62008938      -1.68814901      -0.06759893       0.00000000
Si       2.19413270      -0.72534484      -0.46589868       0.00000000
Si       0.03614751       2.14791797      -0.97847768       0.00000000
Si       0.67943962       2.81937711       1.16907923       0.00000000
Si       1.90987220       0.16118955      -2.70672869       0.00000000
Si       1.92878489      -2.75480193       0.73060523       0.00000000
Si      -3.44240283      -0.22968900       0.09890391       0.00000000
Si      -0.21695022      -0.80871706      -3.38645237       0.00000000
Si      -2.79922476       1.55004238       1.68343791       0.00000000
