10
Lattice="16.290000149 0.0 0.0 0.0 16.290000149 0.0 0.0 0.0 29.1751946751" Properties=species:S:1:pos:R:3:initial_magmoms:R:1 pbc="T T T"
Si      -1.19083159      -1.14612564      -1.69271562       0.00000000
Si       0.58220461      -1.73505443       1.52139888       0.00000000
Si      -1.99081721       0.89231082       0.97672717       0.00000000
Si       1.40416543       1.41929233      -1.37867382       0.00000000
H        0.46288035       2.27779162       2.03228571       0.00000000
Si      -2.47946834      -2.58242766      -0.40973643       0.00000000
Si      -2.72971532       2.21404885      -0.81547587       0.00000000
Si      -2.62086554       0.48396939      -2.62171217       0.00000000
Si      -3.51002262      -0.95686158       0.90483949       0.00000000
H       -0.74701054       0.12071216       3.74087264       0.00000000
