10
Lattice="16.290000149 0.0 0.0 0.0 16.290000149 0.0 0.0 0.0 29.1751946751" Properties=species:S:1:pos:R:3:initial_magmoms:R:1 pbc="T T T"
Si       1.44275644      -0.29566350      -0.44241265       0.00000000
Si      -1.97125292       0.08946468       1.05506257       0.00000000
Si      -1.21122667       1.96214681      -0.22619528       0.00000000
Si       0.66756421       2.66719430       1.04893577       0.00000000
Si       1.09630072      -0.07162713      -2.80478652       0.00000000
Si      -0.57441799       1.62499267      -2.55522190       0.00000000
Si      -0.95348629      -1.24354603       2.67939153       0.00000000
Si       1.88848343      -2.42450588       0.46245601       0.00000000
Si       2.67734297       1.29311650       0.96491121       0.00000000
H        1.61868844       2.42478281      -1.43343566       0.00000000
