10
Lattice="16.290000149 0.0 0.0 0.0 16.290000149 0.0 0.0 0.0 29.1751946751" Properties=species:S:1:pos:R:3:initial_magmoms:R:1 pbc="T T T"
Si      -1.30598560      -1.31432608      -1.44563090       0.00000000
Si      -1.32770017       1.39330000       1.36242324       0.00000000
Si       1.26089488      -1.39377241       1.42841753       0.00000000
Si       1.36783873       1.35931906      -1.37622311       0.00000000
Si      -2.66058056      -2.66813912      -0.10978626       0.00000000
Si       2.65986380       0.02334846       2.68359276       0.00000000
Si       2.69260670      -2.67480173       0.01826367       0.00000000
Si      -2.67144599       2.72865647      -0.04422960       0.00000000
Si       0.06915105       2.76771990       2.67151423       0.00000000
Si      -2.68009598       0.03258489      -2.78182564       0.00000000
