10
Lattice="16.290000149 0.0 0.0 0.0 16.290000149 0.0 0.0 0.0 29.1751946751" Properties=species:S:1:pos:R:3:initial_magmoms:R:1 pbc="T T T"
H       -0.68225779       1.28670476      -0.36661550       0.00000000
Si      -0.83562814      -1.65681682      -1.39924234       0.00000000
Si       2.30790206       0.10276384      -0.34129143       0.00000000
Si      -0.73181197      -0.58079226       2.15619276       0.00000000
H        1.38636046       1.68823697      -1.79975941       0.00000000
H       -0.28875654       2.87843325       0.19413175       0.00000000
Si       2.36485190      -1.96342720       0.93147644       0.00000000
Si      -2.22112197      -0.20848757      -2.56336178       0.00000000
Si       1.33175638      -1.29605359       3.00988813       0.00000000
Si      -2.23370274       2.78289240       0.20939037       0.00000000
