10
Lattice="16.290000149 0.0 0.0 0.0 16.290000149 0.0 0.0 0.0 29.1751946751" Properties=species:S:1:pos:R:3:initial_magmoms:R:1 pbc="T T T"
Si       1.34786719       1.36172998       1.35069481       0.00000000
Si      -1.34299485       1.35799957      -1.36350272       0.00000000
Si       1.35892810      -1.35552349      -1.35419584       0.00000000
Si      -1.36777031      -1.36493911       1.34430544       0.00000000
Si      -0.03373659      -2.69869916      -2.68353441       0.00000000
Si       2.69094512      -0.02145393       2.69397913       0.00000000
Si      -2.67794701      -0.01902672      -2.70836250       0.00000000
Si      -0.04036662       2.71277372       2.68420544       0.00000000
Si       2.69640227       2.70930395      -0.02736633       0.00000000
Si       2.68866452      -2.72577314       0.01797192       0.00000000
