10
Lattice="16.290000149 0.0 0.0 0.0 16.290000149 0.0 0.0 0.0 29.1751946751" Properties=species:S:1:pos:R:3:initial_magmoms:R:1 pbc="T T T"
Si       1.36894645      -1.34809525       1.34144628       0.00000000
Si       1.38003994       1.34358292      -1.33482351       0.00000000
Si      -1.35084826       1.37657017       1.34847750       0.00000000
Si      -1.38018655      -1.34441371      -1.35664655       0.00000000
Si      -0.05431086       2.68985044      -2.59612552       0.00000000
Si      -0.00604359      -2.69014691       2.68417626       0.00000000
Si      -2.72746731       0.02135619       2.68125874       0.00000000
Si       2.72424188      -2.70063767      -0.02462386       0.00000000
Si       2.72611523       0.01506825       2.69908478       0.00000000
Si      -0.04434138      -2.78570406      -2.64592758       0.00000000
