10
Lattice="16.290000149 0.0 0.0 0.0 16.290000149 0.0 0.0 0.0 29.1751946751" Properties=species:S:1:pos:R:3:initial_magmoms:R:1 pbc="T T T"
Si       0.26828653      -0.82257985      -2.15444225       0.00000000
Si      -2.27116159       0.47783457      -0.11585470       0.00000000
Si       1.29252029       1.98174857       0.11763438       0.00000000
Si       1.02642314      -1.54808758       1.48180814       0.00000000
Si      -2.55131702       1.22068627       2.09031517       0.00000000
Si       2.56830423      -0.23793174       2.67329391       0.00000000
Si       3.35608864       1.26648724       0.97132976       0.00000000
Si       1.18870412       0.90572401      -3.43780071       0.00000000
Si       1.91826806      -2.47873529      -2.05650112       0.00000000
Si       2.38328241      -2.90273142       0.15564966       0.00000000
