10
Lattice="16.290000149 0.0 0.0 0.0 16.290000149 0.0 0.0 0.0 29.1751946751" Properties=species:S:1:pos:R:3:initial_magmoms:R:1 pbc="T T T"
Si       1.30572496      -1.42574968      -1.30310453       0.00000000
Si       1.41312493       1.29570661       1.34413302       0.00000000
Si      -1.29971395      -1.48222711       1.27609355       0.00000000
Si      -1.27975870       1.49517766      -1.33779383       0.00000000
Si       2.57095298       0.05683581      -2.62932135       0.00000000
Si      -2.68459202      -0.11127699       2.62641492       0.00000000
Si       0.03157002       2.65181654       2.66957087       0.00000000
Si      -2.63845874       0.15094314      -2.68093227       0.00000000
Si      -0.07056828      -2.45407223      -2.93697378       0.00000000
Si      -2.72450253       2.69044013       0.01909137       0.00000000
