10
Lattice="16.290000149 0.0 0.0 0.0 16.290000149 0.0 0.0 0.0 29.1751946751" Properties=species:S:1:pos:R:3:initial_magmoms:R:1 pbc="T T T"
Si       0.92449009      -1.04062150       1.83599500       0.00000000
Si      -0.76947445      -2.04517694      -0.88071160       0.00000000
Si      -1.30271131       1.49962483       1.32081941       0.00000000
Si       1.98824339       0.60230647      -1.17578952       0.00000000
H       -0.26119386       2.68952789      -1.44423049       0.00000000
Si      -0.16511544      -1.52433676      -3.06447492       0.00000000
Si       2.25808724      -2.58693347       0.67884843       0.00000000
Si      -1.01499733      -2.06791778       2.73762522       0.00000000
Si       1.99040996       0.72347149       2.89747611       0.00000000
Si       0.28981539       2.32013585       2.87871646       0.00000000
