10
Lattice="16.290000149 0.0 0.0 0.0 16.290000149 0.0 0.0 0.0 29.1751946751" Properties=species:S:1:pos:R:3:initial_magmoms:R:1 pbc="T T T"
H       -1.13068891       0.05559777       1.00601906       0.00000000
Si       0.22636584      -2.13436469      -0.91297937       0.00000000
Si       2.06259095       0.69431239       0.90057991       0.00000000
Si      -0.22887450       1.51532839      -1.83611170       0.00000000
H       -0.45822141       0.98274313       2.62276248       0.00000000
H       -2.05618898       1.82496872       1.45391665       0.00000000
Si       2.35072847      -1.54774549      -1.91505978       0.00000000
H        2.43898769      -2.37208466       0.65638353       0.00000000
Si       3.31999977       0.44867547      -1.03790755       0.00000000
Si       1.72230914       2.81509122       1.83083099       0.00000000
