10
Lattice="16.290000149 0.0 0.0 0.0 16.290000149 0.0 0.0 0.0 29.1751946751" Properties=species:S:1:pos:R:3:initial_magmoms:R:1 pbc="T T T"
Si      -1.55999557       1.07711110      -1.36598261       0.00000000
Si       1.39919698      -1.46649097      -1.20473131       0.00000000
Si      -0.85390552      -1.49452606       1.62324948       0.00000000
Si       0.42640704       1.81350056       1.48770153       0.00000000
H        0.34259499      -1.12585078       2.50807479       0.00000000
Si      -1.88395481       1.99301636       2.08325478       0.00000000
Si      -0.24488757       2.56772756      -2.63381987       0.00000000
Si      -3.04652325       2.15428736       0.06272667       0.00000000
Si       2.70638804      -0.11965005      -2.59384986       0.00000000
Si      -0.09674631      -2.86277205      -2.47265610       0.00000000
