10
Lattice="16.290000149 0.0 0.0 0.0 16.290000149 0.0 0.0 0.0 29.1751946751" Properties=species:S:1:pos:R:3:initial_magmoms:R:1 pbc="T T T"
Si      -1.56732607       1.27946548      -1.12514138       0.00000000
Si      -1.39369096      -1.43394355       1.17885292       0.00000000
Si       1.56367711       1.12383082       1.46806662       0.00000000
Si       1.07326666      -1.10908837      -1.86829194       0.00000000
Si       2.09103329      -2.44209908      -0.24396298       0.00000000
Si       0.30690360      -3.03060792       1.19761257       0.00000000
Si       0.05294250       2.30985686      -2.51621466       0.00000000
Si       1.83329291       0.76359376      -3.14954979       0.00000000
Si      -2.53830782       2.73445572       0.38668803       0.00000000
Si      -3.46169019      -0.22488345      -1.44201317       0.00000000
