10
Lattice="16.290000149 0.0 0.0 0.0 16.290000149 0.0 0.0 0.0 29.1751946751" Properties=species:S:1:pos:R:3:initial_magmoms:R:1 pbc="T T T"
Si       2.24762906      -0.50034735       0.27089168       0.00000000
Si      -1.57128454      -1.68937727      -0.44083719       0.00000000
Si      -0.73230067       0.63430003       2.17786468       0.00000000
Si      -0.08640216       1.46069173      -1.92833449       0.00000000
H        0.25777296      -1.10572286      -2.82891440       0.00000000
Si      -2.82501183      -0.58220461      -2.04308053       0.00000000
Si      -1.30855942       3.31670919      -1.26602840       0.00000000
Si       1.30683268      -2.21863775      -2.84221829       0.00000000
Si       3.17958974      -1.31293166      -1.72585864       0.00000000
H       -0.00544086       3.86126761      -0.34756409       0.00000000
