10
Lattice="16.290000149 0.0 0.0 0.0 16.290000149 0.0 0.0 0.0 29.1751946751" Properties=species:S:1:pos:R:3:initial_magmoms:R:1 pbc="T T T"
Si      -0.72112573      -0.08174322      -1.32347436       0.00000000
H       -2.11936160       0.73546093       0.30523089       0.00000000
H        1.14862420       1.62992854      -1.13199755       0.00000000
H        1.79900246       1.20658402      -1.08712610       0.00000000
Si      -1.51698997       0.83966806       1.70208086       0.00000000
Si       0.26119386      -2.68952789       1.44423049       0.00000000
Si       2.24943725      -2.08722143       0.26844097       0.00000000
Si       0.88790275      -0.87076567      -2.84869518       0.00000000
Si       0.37737414       2.34401699       2.01895265       0.00000000
Si      -1.04151745      -1.18990306       2.76504990       0.00000000
