10
Lattice="16.290000149 0.0 0.0 0.0 16.290000149 0.0 0.0 0.0 29.1751946751" Properties=species:S:1:pos:R:3:initial_magmoms:R:1 pbc="T T T"
Si       1.17561673       0.54141445       1.05372051       0.00000000
Si      -1.30311856      -0.54455841      -0.91846430       0.00000000
Si      -0.08096130      -2.40057587      -1.58077040       0.00000000
Si      -0.36061173       1.81372862       2.25074957       0.00000000
Si       2.84352704       1.32841693      -0.39366090       0.00000000
Si      -3.08724825      -1.13306725       0.52311124       0.00000000
Si       2.31612851      -0.95819410       2.43860456       0.00000000
Si      -2.32088519       0.78845230      -2.54279327       0.00000000
Si      -1.83047474       3.02137149       0.79356530       0.00000000
H       -0.34963227       0.69898762      -3.59785583       0.00000000
