10
Lattice="16.290000149 0.0 0.0 0.0 16.290000149 0.0 0.0 0.0 29.1751946751" Properties=species:S:1:pos:R:3:initial_magmoms:R:1 pbc="T T T"
Si      -1.36720342       1.35654976      -1.32863837       0.00000000
Si       1.34799751       1.36195804       1.34920688       0.00000000
Si      -1.37604889      -1.33050205       1.35477934       0.00000000
Si       1.37461537      -1.36459702      -1.33278124       0.00000000
Si       2.66778074      -0.07975584       2.62430876       0.00000000
Si       0.00123804       2.70052364      -2.67119330       0.00000000
Si       0.00952965      -2.72036486      -2.67956658       0.00000000
Si      -2.70749576      -0.00612504      -2.69377490       0.00000000
Si      -2.68543910       2.71981100       0.06138461       0.00000000
Si      -0.06546951      -2.75752236       2.65185014       0.00000000
