10
Lattice="16.290000149 0.0 0.0 0.0 16.290000149 0.0 0.0 0.0 29.1751946751" Properties=species:S:1:pos:R:3:initial_magmoms:R:1 pbc="T T T"
Si       1.33380892       1.36334758      -1.37135085       0.00000000
Si      -1.36073629      -1.34269838      -1.37852795       0.00000000
Si      -1.42561936       1.36215841       1.29873379       0.00000000
Si       1.40033728      -1.34074358       1.36108118       0.00000000
Si       2.70475904      -2.68663968      -0.07153758       0.00000000
Si       0.05546745      -2.71542411       2.67705751       0.00000000
Si       2.69389361       2.71015592      -0.00598091       0.00000000
Si      -2.72391608      -2.69359551      -0.02929190       0.00000000
Si      -0.13175352       2.80027220       2.61109240       0.00000000
Si       2.62661591       0.09406986       2.78891521       0.00000000
