10
Lattice="16.290000149 0.0 0.0 0.0 16.290000149 0.0 0.0 0.0 29.1751946751" Properties=species:S:1:pos:R:3:initial_magmoms:R:1 pbc="T T T"
Si      -1.66791031      -0.78700249       1.44738141       0.00000000
Si       1.11317553       1.70582366       1.24563494       0.00000000
Si      -0.51581634       0.66368719      -2.23928372       0.00000000
Si       1.41894698      -1.94414636       0.01050307       0.00000000
H       -2.84352704      -1.32841693       0.39366090       0.00000000
Si       2.46984747       0.29840022       2.56091106       0.00000000
Si       0.88924342      -2.85821085      -2.07473562       0.00000000
Si      -0.52739853      -2.28661103       2.83226546       0.00000000
Si       3.48222211      -0.94156201       0.72234865       0.00000000
H        2.86105182      -0.38846763      -2.40356924       0.00000000
