10
Lattice="16.290000149 0.0 0.0 0.0 16.290000149 0.0 0.0 0.0 29.1751946751" Properties=species:S:1:pos:R:3:initial_magmoms:R:1 pbc="T T T"
Si      -1.30766347      -1.28906029       1.47166976       0.00000000
Si      -1.34820928       1.36192546      -1.37750973       0.00000000
Si       1.43218423      -1.37173204      -1.28291792       0.00000000
Si       1.37257912       1.40603878       1.31167299       0.00000000
Si      -2.61931799      -2.64896579       0.12649781       0.00000000
Si       2.64662003       0.06361245      -2.72582385       0.00000000
Si       2.74681983      -2.63546138       0.18961251       0.00000000
Si      -2.71140536       2.70938540       0.01343518       0.00000000
Si       2.71200809       0.06955830       2.73352610       0.00000000
Si      -2.73821871      -0.01583388      -2.71902603       0.00000000
