10
Lattice="16.290000149 0.0 0.0 0.0 16.290000149 0.0 0.0 0.0 29.1751946751" Properties=species:S:1:pos:R:3:initial_magmoms:R:1 pbc="T T T"
Si       1.34027605      -1.35586558      -1.34478479       0.00000000
Si       1.30373758       1.18469026       1.55336818       0.00000000
Si      -1.32191722      -1.40271562       1.34245194       0.00000000
Si      -1.21508740       1.41468877      -1.44946539       0.00000000
Si      -0.16408917      -2.64158642      -2.63100243       0.00000000
Si       0.40465989       2.90166442      -2.38552234       0.00000000
Si      -2.70347213      -0.04660569       2.66788979       0.00000000
Si      -2.69676065       2.71341425      -0.10886520       0.00000000
Si      -2.73504215      -2.69842223      -0.00168107       0.00000000
Si      -0.01622484       2.67350557       2.76253704       0.00000000
