10
Lattice="16.290000149 0.0 0.0 0.0 16.290000149 0.0 0.0 0.0 29.1751946751" Properties=species:S:1:pos:R:3:initial_magmoms:R:1 pbc="T T T"
Si      -1.34841613      -1.40887324       1.30804068       0.00000000
Si       1.34051718      -1.36073629      -1.37173013       0.00000000
Si      -1.43771791       1.35154873      -1.28575083       0.00000000
Si       1.38057103       1.35891181       1.35454594       0.00000000
Si      -2.58621179      -0.04302189       2.72610102       0.00000000
Si      -0.05873682       2.67941180      -2.67393577       0.00000000
Si      -0.00297604       2.75234376       2.64922438       0.00000000
Si       2.71105190      -2.70194087      -0.01289544       0.00000000
Si       2.70033308      -0.00904095      -2.72429215       0.00000000
Si      -0.02436492      -2.78241348       2.64265996       0.00000000
