10
Lattice="16.290000149 0.0 0.0 0.0 16.290000149 0.0 0.0 0.0 29.1751946751" Properties=species:S:1:pos:R:3:initial_magmoms:R:1 pbc="T T T"
Si       1.46361579      -1.21024927      -1.34051267       0.00000000
Si      -1.15225687      -1.64038673       1.18083683       0.00000000
Si      -1.76834468       1.15733935      -1.02953427       0.00000000
Si       1.45887214       1.38562741       1.34783564       0.00000000
H       -2.05508126      -0.89941978       2.15805997       0.00000000
Si      -3.38082663       1.32642955       0.64999416       0.00000000
Si       2.64319913       0.31817628      -2.65818116       0.00000000
Si       2.90131419      -2.39704094       0.10555585       0.00000000
Si      -0.93454102       3.08695014      -2.04967413       0.00000000
Si       0.25005623      -2.80930827       2.64268913       0.00000000
