10
Lattice="16.290000149 0.0 0.0 0.0 16.290000149 0.0 0.0 0.0 29.1751946751" Properties=species:S:1:pos:R:3:initial_magmoms:R:1 pbc="T T T"
Si      -1.36006840       1.35738055       1.33931649       0.00000000
Si       1.34892604       1.37383345      -1.33677824       0.00000000
Si       1.38259747      -1.35941680       1.32195725       0.00000000
Si      -1.35557236      -1.37197639      -1.33803278       0.00000000
Si       2.67913487      -0.04613654      -2.62264577       0.00000000
Si       0.00597843      -2.71463078       2.65473849       0.00000000
Si      -2.72678312      -0.01156916      -2.65094571       0.00000000
Si       0.01275507       2.70511742       2.68207565       0.00000000
Si       2.73194706       0.01060968       2.67338144       0.00000000
Si      -2.70397712       0.00232458       2.70547415       0.00000000
