10
Lattice="16.290000149 0.0 0.0 0.0 16.290000149 0.0 0.0 0.0 29.1751946751" Properties=species:S:1:pos:R:3:initial_magmoms:R:1 pbc="T T T"
Si       1.37288863       1.38450340       1.30856583       0.00000000
Si       1.37152027      -1.33973034      -1.36510736       0.00000000
Si      -1.32286204       1.36477621      -1.39267792       0.00000000
Si      -1.36783873      -1.35931906       1.37622311       0.00000000
Si      -2.67382433      -2.67364514      -0.06940779       0.00000000
Si       2.67656105       0.00299736       2.68187142       0.00000000
Si      -2.68289786       2.71655300      -0.03976579       0.00000000
Si       2.70374906      -2.70625772       0.00630184       0.00000000
Si      -2.69553890       0.03398094       2.73864635       0.00000000
Si      -2.68299560       0.02085120      -2.75524703       0.00000000
