10
Lattice="16.290000149 0.0 0.0 0.0 16.290000149 0.0 0.0 0.0 29.1751946751" Properties=species:S:1:pos:R:3:initial_magmoms:R:1 pbc="T T T"
Si      -0.08433333       0.69388885       2.22894986       0.00000000
Si       0.72894493      -2.19029640      -0.40559356       0.00000000
Si       1.93948742       1.02729628      -0.90163022       0.00000000
Si      -2.20439540       0.38162583      -0.80228868       0.00000000
H        2.45060246      -0.25396110       1.48997719       0.00000000
Si       2.62938521      -1.64160359       0.87980717       0.00000000
Si      -2.15660054       2.67630041      -0.13791115       0.00000000
Si       1.46706112      -1.84839537      -2.66617517       0.00000000
Si       1.01499733       2.06791778      -2.73762522       0.00000000
Si       0.24552288       0.02274084      -3.61833682       0.00000000
