10
Lattice="16.290000149 0.0 0.0 0.0 16.290000149 0.0 0.0 0.0 29.1751946751" Properties=species:S:1:pos:R:3:initial_magmoms:R:1 pbc="T T T"
Si       1.36003582      -1.35177679      -1.35291213       0.00000000
Si       1.37339362       1.36467847       1.33164341       0.00000000
Si      -1.35482302       1.35148357      -1.36866673       0.00000000
Si      -1.35638686      -1.34721559       1.37175930       0.00000000
Si      -0.00040725       2.72269433       2.65342561       0.00000000
Si       2.68289786      -2.71655300       0.03976579       0.00000000
Si      -2.72487719       0.03951954       2.68455554       0.00000000
Si      -2.71647155      -2.69402393       0.00638937       0.00000000
Si      -0.00009774      -2.69570180      -2.71548124       0.00000000
Si       2.71627607       0.02590110      -2.70833332       0.00000000
