10
Lattice="16.290000149 0.0 0.0 0.0 16.290000149 0.0 0.0 0.0 29.1751946751" Properties=species:S:1:pos:R:3:initial_magmoms:R:1 pbc="T T T"
Si      -1.21264390      -1.31872438       1.50188067       0.00000000
Si       1.52596576       0.72417196       1.61662671       0.00000000
Si       0.62633422      -1.07064397      -2.04809867       0.00000000
Si      -1.48248775       1.87051556      -0.35275728       0.00000000
H        1.87014089      -1.84224263       0.71604680       0.00000000
H        3.08003178       0.31483683      -0.99254012       0.00000000
Si      -1.86680144       1.22526865      -2.57616969       0.00000000
Si       3.14577822       1.39922956       0.06199729       0.00000000
Si       0.30380850       2.58018941       2.27893281       0.00000000
Si      -2.54624105       0.22758759       2.65902724       0.00000000
