10
Lattice="16.290000149 0.0 0.0 0.0 16.290000149 0.0 0.0 0.0 29.1751946751" Properties=species:S:1:pos:R:3:initial_magmoms:R:1 pbc="T T T"
Si       1.28479231      -1.41872869       1.36172304       0.00000000
Si      -1.33406956       1.07158879       1.61942753       0.00000000
Si       1.31878954       1.32778162      -1.44116709       0.00000000
Si      -1.40994838      -1.36153450      -1.32009003       0.00000000
H       -2.52042140       1.58430025       0.82198193       0.00000000
Si       2.70615998       0.02516805       2.52248733       0.00000000
Si      -2.01987857      -0.79376284       3.04069714       0.00000000
Si      -0.34915986      -2.49038264       2.79113252       0.00000000
H       -1.88996582       3.24141681      -0.28063620       0.00000000
Si       2.60546498       2.73997803      -0.12282757       0.00000000
