10
Lattice="16.290000149 0.0 0.0 0.0 16.290000149 0.0 0.0 0.0 29.1751946751" Properties=species:S:1:pos:R:3:initial_magmoms:R:1 pbc="T T T"
Si      -1.37565793      -1.32269914       1.36195644       0.00000000
Si      -1.37297008       1.34991973      -1.34847750       0.00000000
Si       1.29037978      -1.36822969      -1.41339231       0.00000000
Si       1.40641345       1.32809113       1.35787191       0.00000000
Si       0.04307076      -2.69527826       2.61654816       0.00000000
Si      -0.00979029       2.70081686      -2.69771355       0.00000000
Si       0.04186530       2.70089831       2.70279003       0.00000000
Si       2.67931406      -0.00938304      -2.72747225       0.00000000
Si       2.61016301      -2.80994358      -0.13829042       0.00000000
Si      -2.73233801      -2.70327665       0.01018214       0.00000000
