10
Lattice="16.290000149 0.0 0.0 0.0 16.290000149 0.0 0.0 0.0 29.1751946751" Properties=species:S:1:pos:R:3:initial_magmoms:R:1 pbc="T T T"
Si       1.33889466      -1.35850456       1.36367777       0.00000000
Si      -1.35216449      -1.35242839      -1.36105201       0.00000000
Si      -1.32781094       1.34869798       1.39498276       0.00000000
Si       1.35863814       1.35226549      -1.36210231       0.00000000
Si       2.69008501       0.02788848       2.68645193       0.00000000
Si      -2.67070969       2.70681158       0.02634520       0.00000000
Si       0.03626643      -2.71327871      -2.68403038       0.00000000
Si      -2.69006221      -2.70938540       0.02024759       0.00000000
Si      -2.69744158       0.02847492      -2.71568547       0.00000000
Si       2.69893048       2.71494029       0.00303422       0.00000000
