10
Lattice="16.290000149 0.0 0.0 0.0 16.290000149 0.0 0.0 0.0 29.1751946751" Properties=species:S:1:pos:R:3:initial_magmoms:R:1 pbc="T T T"
Si      -1.35772264      -0.57329398      -0.27625992       0.00000000
H        0.92550007      -1.76937095      -0.44789759       0.00000000
H        1.59796756      -0.84222559       1.16884582       0.00000000
Si       1.06227091      -1.09965646       2.55458005       0.00000000
Si      -2.71458191       0.78134986       1.04989856       0.00000000
Si      -1.82273699      -0.14929785      -2.48841070       0.00000000
Si       2.05618898      -1.82496872      -1.45391665       0.00000000
Si      -1.17270082       2.09150570       2.24138433       0.00000000
Si       0.00500103       1.14881968      -3.12352552       0.00000000
Si      -1.81620470      -2.78067045       0.33545639       0.00000000
