10
Lattice="16.290000149 0.0 0.0 0.0 16.290000149 0.0 0.0 0.0 29.1751946751" Properties=species:S:1:pos:R:3:initial_magmoms:R:1 pbc="T T T"
H        1.97125292      -0.08946468      -1.05506257       0.00000000
Si       1.01776663      -1.33301071       1.62432896       0.00000000
Si       0.76002625       1.87268213      -1.28125785       0.00000000
Si      -0.76852963      -2.04268457      -1.00736112       0.00000000
Si      -1.07326666       1.10908837       1.86829194       0.00000000
H       -1.21896442       1.25112088      -2.36292819       0.00000000
H       -3.01796688       0.04453686      -1.27580209       0.00000000
H       -1.86934268       1.67446541      -2.40779964       0.00000000
H        2.32088519      -0.78845230       2.54279327       0.00000000
Si      -1.02032416       3.41894523      -0.64792272       0.00000000
