10
Lattice="16.290000149 0.0 0.0 0.0 16.290000149 0.0 0.0 0.0 29.1751946751" Properties=species:S:1:pos:R:3:initial_magmoms:R:1 pbc="T T T"
Si      -1.23779566       1.36585135       1.41806034       0.00000000
Si       1.32405121      -1.37354023       1.33461928       0.00000000
Si       1.34841613       1.40887324      -1.30804068       0.00000000
Si      -1.38784285      -1.35713620      -1.33138083       0.00000000
H       -1.88470415       0.54009495       2.49515017       0.00000000
Si       2.61072665       0.03865617       2.65295880       0.00000000
Si      -2.81639442       2.45322515       0.09689082       0.00000000
Si      -0.08930178       2.76042198      -2.59379151       0.00000000
Si      -0.00405621      -2.70050735      -2.66693372       0.00000000
Si       2.68893331       0.04813695      -2.67977081       0.00000000
