10
Lattice="16.290000149 0.0 0.0 0.0 16.290000149 0.0 0.0 0.0 29.1751946751" Properties=species:S:1:pos:R:3:initial_magmoms:R:1 pbc="T T T"
Si      -1.39266469      -1.34317567      -1.32933857       0.00000000
Si      -1.35892810       1.35552349       1.35419584       0.00000000
Si       1.32973642      -1.37024965       1.37216776       0.00000000
Si       1.36052452       1.34443000      -1.37208023       0.00000000
Si      -0.03697830      -2.73919936      -2.61809444       0.00000000
Si       2.70730028       2.70141959      -0.00956946       0.00000000
Si      -2.70192296       2.71352306      -0.00930689       0.00000000
Si       2.70255989      -0.02251278       2.71492692       0.00000000
Si       2.68980482      -2.72763020       0.03285127       0.00000000
Si      -0.01106091       2.71725347       2.70489065       0.00000000
