10
Lattice="16.290000149 0.0 0.0 0.0 16.290000149 0.0 0.0 0.0 29.1751946751" Properties=species:S:1:pos:R:3:initial_magmoms:R:1 pbc="T T T"
Si      -1.33739272      -1.29223684      -1.42727970       0.00000000
Si       1.35879778       1.38062638      -1.35101574       0.00000000
Si      -1.11856915       1.11206944       1.75888496       0.00000000
Si       1.33299442      -1.42325731       1.36507818       0.00000000
Si       0.74886760       1.94839805       3.00977143       0.00000000
Si       2.41958630       0.25177824       2.76020682       0.00000000
Si      -2.77803147      -0.41335875       2.49555863       0.00000000
Si       0.05072706      -2.64357380      -2.74725303       0.00000000
Si       2.74465326       0.02992473      -2.70477395       0.00000000
Si      -2.67766877       0.05556519      -2.80925032       0.00000000
