10
Lattice="16.290000149 0.0 0.0 0.0 16.290000149 0.0 0.0 0.0 29.1751946751" Properties=species:S:1:pos:R:3:initial_magmoms:R:1 pbc="T T T"
Si       1.35119035       1.38639304       1.32277415       0.00000000
Si      -1.33889466       1.35850456      -1.36367777       0.00000000
Si       1.38823381      -1.35104374      -1.33351062       0.00000000
Si      -1.35007937      -1.36547668       1.36420293       0.00000000
Si       2.66176973      -0.04062726       2.61984496       0.00000000
Si      -2.66670560       2.70720254       0.03130498       0.00000000
Si       0.04036662      -2.71277372      -2.68420544       0.00000000
Si      -2.69105915       0.00607617      -2.72472978       0.00000000
Si      -2.69265557      -2.72619668       0.00989039       0.00000000
Si       0.01974348       2.71077005      -2.72578009       0.00000000
