10
Lattice="16.290000149 0.0 0.0 0.0 16.290000149 0.0 0.0 0.0 29.1751946751" Properties=species:S:1:pos:R:3:initial_magmoms:R:1 pbc="T T T"
Si       1.37009001       1.36930483       1.32481641       0.00000000
Si      -1.32489829       1.38357487      -1.35997252       0.00000000
Si       1.37973532      -1.34810340      -1.34121287       0.00000000
Si      -1.35200485      -1.35129624       1.37304301       0.00000000
Si      -2.68364720      -2.70633917      -0.01018214       0.00000000
Si      -2.69361668       0.03455109      -2.69736345       0.00000000
Si       0.00483813       2.72082098       2.67460680       0.00000000
Si       2.69851997       0.00861741       2.69879303       0.00000000
Si       2.70412373       0.03554478      -2.70302344       0.00000000
Si      -2.69014691       2.73088820      -0.00994874       0.00000000
