10
Lattice="16.290000149 0.0 0.0 0.0 16.290000149 0.0 0.0 0.0 29.1751946751" Properties=species:S:1:pos:R:3:initial_magmoms:R:1 pbc="T T T"
Si       1.32060099      -1.33672483      -1.40647778       0.00000000
Si       1.39345639       1.37287234       1.31367149       0.00000000
Si      -1.34032492       1.36511830      -1.37590218       0.00000000
Si      -1.35509995      -1.34793235       1.39296967       0.00000000
Si      -0.01221750       2.69208542       2.62565082       0.00000000
Si       2.65057850      -2.69558777      -0.04110785       0.00000000
Si      -2.70016526      -2.67408497      -0.01476265       0.00000000
Si      -2.72411156       2.70848945      -0.04034929       0.00000000
Si       2.67068036       0.02875185      -2.77068071       0.00000000
Si       0.03598428      -2.70578531       2.74278923       0.00000000
