10
Lattice="16.290000149 0.0 0.0 0.0 16.290000149 0.0 0.0 0.0 29.1751946751" Properties=species:S:1:pos:R:3:initial_magmoms:R:1 pbc="T T T"
Si      -1.34616815       1.36079331      -1.35521697       0.00000000
Si       1.35671266       1.36231154       1.35063646       0.00000000
Si      -1.37586644      -1.34819299       1.35016966       0.00000000
Si       1.31776327      -1.37095012      -1.38850586       0.00000000
Si       0.01339038      -2.69737967       2.68009173       0.00000000
Si      -2.66013617      -0.02344131      -2.71877804       0.00000000
Si       2.70511742      -0.01198944      -2.69287047       0.00000000
Si      -0.02738349       2.71751411       2.68478894       0.00000000
Si      -2.69013468      -2.71480997      -0.04370444       0.00000000
Si       2.70006752      -2.71666703      -0.05248618       0.00000000
