10
Lattice="16.28999089631971 0.0 0.0 0.0 16.28999089631971 0.0 0.0 0.0 34.48637585096406" Properties=species:S:1:pos:R:3:initial_magmoms:R:1 pbc="T T T"
Si      -1.50879609      -1.04521527      -1.47067232       0.00000000
Si       2.23603056      -0.76312134      -0.28033991       0.00000000
Si       0.71814465       2.08091718      -1.19267749       0.00000000
Si      -0.84944205       0.08304642       2.46319077       0.00000000
Si      -2.36763747       1.72926495       1.76225479       0.00000000
Si       2.29579857       2.83688446       0.44721957       0.00000000
Si      -0.68913216      -0.51018651      -3.59279264       0.00000000
Si       2.56932396      -1.71688455      -2.37262950       0.00000000
Si      -2.03632493      -3.23872893      -0.74366462       0.00000000
Si      -3.53218418       0.14428053      -1.81243250       0.00000000
