10
Lattice="16.28999089631971 0.0 0.0 0.0 16.28999089631971 0.0 0.0 0.0 34.48637585096406" Properties=species:S:1:pos:R:3:initial_magmoms:R:1 pbc="T T T"
Si      -1.33709949      -1.35480020       1.38367349       0.00000000
Si       1.37424069       1.35966114       1.37884540       0.00000000
Si       1.40577813      -1.33623123      -1.40039939       0.00000000
Si      -1.33247313       1.42591257      -1.51206289       0.00000000
Si       0.64365048       2.09117988      -2.77874615       0.00000000
Si       2.52141507       0.23050350      -2.75653692       0.00000000
Si      -2.67361254      -2.72392329       0.00624893       0.00000000
Si      -2.68354944       2.73691548       0.00247612       0.00000000
Si      -2.69767287       0.00192222       2.74160979       0.00000000
Si       2.73847932      -2.70522233       0.02068149       0.00000000
