10
Lattice="16.28999089631971 0.0 0.0 0.0 16.28999089631971 0.0 0.0 0.0 34.48637585096406" Properties=species:S:1:pos:R:3:initial_magmoms:R:1 pbc="T T T"
Si       1.35557235       1.35404109      -1.39287101       0.00000000
Si      -1.36085031      -1.36555877      -1.39256064       0.00000000
Si       1.45551150      -1.26869794       1.50377926       0.00000000
Si      -1.41322266       1.37254653       1.55361210       0.00000000
Si       2.69684208       2.71094922      -0.02107119       0.00000000
Si       2.70251100      -2.70619973      -0.02572685       0.00000000
Si      -2.73163752      -2.69192969      -0.02958933       0.00000000
Si      -2.71943631       2.71212210      -0.00362107       0.00000000
Si      -0.00125433       2.70791928      -2.75280752       0.00000000
Si       2.71308321      -0.00755204      -2.75204882       0.00000000
