10
Lattice="16.28999089631971 0.0 0.0 0.0 16.28999089631971 0.0 0.0 0.0 34.48637585096406" Properties=species:S:1:pos:R:3:initial_magmoms:R:1 pbc="T T T"
Si      -1.66114017       0.06657723      -1.74642554       0.00000000
Si      -0.39297996       1.40745600       1.94689495       0.00000000
Si       0.59601852      -2.17832228       0.94482377       0.00000000
Si       2.29698774       0.36409779      -0.79767032       0.00000000
Si       3.26177928      -0.00521280       1.26840961       0.00000000
Si       1.89185544       1.28860416       2.69580151       0.00000000
Si       1.29757995      -3.50229203      -0.99244948       0.00000000
Si       2.89163790      -2.26413800       1.63948322       0.00000000
Si      -1.70359191       0.30615426       3.66076533       0.00000000
Si      -3.60486297       1.38699576      -1.21795602       0.00000000
