10
Lattice="16.28999089631971 0.0 0.0 0.0 16.28999089631971 0.0 0.0 0.0 34.48637585096406" Properties=species:S:1:pos:R:3:initial_magmoms:R:1 pbc="T T T"
Si       2.28483540      -0.11885184       0.74890656       0.00000000
Si      -1.31061195      -1.10130174       1.71387038       0.00000000
Si      -0.49448295       2.11807467       1.09228759       0.00000000
Si       0.39297996      -1.40745600      -1.94689495       0.00000000
Si      -2.74667319       1.24227540      -1.22550854       0.00000000
Si      -1.77393213       1.00136259       2.74373760       0.00000000
Si       2.20332024      -0.80630613       3.00431680       0.00000000
Si       0.98899848      -3.58577828      -1.00207118       0.00000000
Si       1.49450976       3.11272578       1.93244515       0.00000000
Si       3.65475924      -1.41266880      -0.67848534       0.00000000
