10
Lattice="16.28999089631971 0.0 0.0 0.0 16.28999089631971 0.0 0.0 0.0 34.48637585096406" Properties=species:S:1:pos:R:3:initial_magmoms:R:1 pbc="T T T"
Si      -0.08151516      -0.68745429       2.25541024       0.00000000
Si       1.36992384      -1.29381696      -1.42739189       0.00000000
Si       1.01551860       2.12978718       0.25340603       0.00000000
Si      -2.28483540       0.11885184      -0.74890656       0.00000000
Si       2.00482659      -1.72683937       2.25899683       0.00000000
Si      -0.79032564       3.23157762       1.18353859       0.00000000
Si      -1.89185544      -1.28860416      -2.69580151       0.00000000
Si      -2.77931835       2.23692651       0.34338104       0.00000000
Si       0.40513230      -0.92450637      -3.49347183       0.00000000
Si       3.51409509      -0.20624769       1.18409038       0.00000000
