10
Lattice="16.28999089631971 0.0 0.0 0.0 16.28999089631971 0.0 0.0 0.0 34.48637585096406" Properties=species:S:1:pos:R:3:initial_magmoms:R:1 pbc="T T T"
Si      -1.11563694      -1.56673473       1.35613752       0.00000000
Si       1.60607997       1.14240141       1.31917501       0.00000000
Si      -1.87776459       1.86067638      -0.02220924       0.00000000
Si       1.18991934      -1.88346446      -1.64982914       0.00000000
Si      -1.92021633       1.96747362      -2.35311020       0.00000000
Si       0.22744098       2.49222339       2.76794502       0.00000000
Si      -2.52141507      -0.23050350       2.75653692       0.00000000
Si      -1.88893953      -3.28306121      -0.12584086       0.00000000
Si       3.04639290       2.43551790      -0.25709608       0.00000000
Si       2.79138924      -2.74581634      -0.00055178       0.00000000
