10
Lattice="16.28999089631971 0.0 0.0 0.0 16.28999089631971 0.0 0.0 0.0 34.48637585096406" Properties=species:S:1:pos:R:3:initial_magmoms:R:1 pbc="T T T"
Si      -0.53926905       1.57216419      -1.65610567       0.00000000
Si       0.46520982       1.26273564       1.93934243       0.00000000
Si       1.94372280      -1.32041853      -0.52846952       0.00000000
Si      -1.91690036      -1.50042303       0.50394969       0.00000000
Si      -0.08996967      -0.11082087      -3.46960724       0.00000000
Si       0.74220498      -3.30681184      -1.09870206       0.00000000
Si      -0.98719518      -2.43071887      -2.51612739       0.00000000
Si      -1.62179819       2.30712012       2.50450547       0.00000000
Si      -1.12359135      -2.99779169       2.15571007       0.00000000
Si      -2.74182596       2.45197080      -1.18040033       0.00000000
