10
Lattice="16.28999089631971 0.0 0.0 0.0 16.28999089631971 0.0 0.0 0.0 34.48637585096406" Properties=species:S:1:pos:R:3:initial_magmoms:R:1 pbc="T T T"
Si      -1.35826020      -1.33869591       1.37471048       0.00000000
Si       1.35698958       1.37712402       1.36833049       0.00000000
Si      -1.22228757       1.50012981      -1.36624407       0.00000000
Si       1.42252425      -1.36568844      -1.44038982       0.00000000
Si       2.33484570       0.51618123      -2.49072299       0.00000000
Si       0.67611645       2.38075092      -2.55552568       0.00000000
Si      -2.70125667      -2.67607233      -0.00817672       0.00000000
Si       2.73114882      -2.69026092       0.00075525       0.00000000
Si      -0.00004887      -2.69314425       2.73112937       0.00000000
Si      -2.71262709       0.01905930       2.73119834       0.00000000
