10
Lattice="16.28999089631971 0.0 0.0 0.0 16.28999089631971 0.0 0.0 0.0 34.48637585096406" Properties=species:S:1:pos:R:3:initial_magmoms:R:1 pbc="T T T"
Si       1.26055278      -1.40682069       1.33493387       0.00000000
Si      -1.33380891      -1.35725022      -1.35455663       0.00000000
Si       1.38129426       1.35594702      -1.34803870       0.00000000
Si      -1.37323071       1.37314926       1.39952689       0.00000000
Si       2.01341142       0.51320016       2.52526628       0.00000000
Si       0.46086039       2.62474254       2.49050400       0.00000000
Si      -2.67446777      -2.71969695       0.01269099       0.00000000
Si      -2.68914506      -0.00467523      -2.71038925       0.00000000
Si      -2.69238351       2.71663443       0.00306929       0.00000000
Si       0.02583594       2.71238274      -2.70990644       0.00000000
