10
Lattice="16.28999089631971 0.0 0.0 0.0 16.28999089631971 0.0 0.0 0.0 34.48637585096406" Properties=species:S:1:pos:R:3:initial_magmoms:R:1 pbc="T T T"
Si      -1.34457660      -1.36034532       1.38733939       0.00000000
Si       1.36940256       1.35718506       1.38089044       0.00000000
Si       1.51933572      -1.21368645      -1.38026279       0.00000000
Si      -1.33431390       1.33538904      -1.61383914       0.00000000
Si       2.41394994       0.60768216      -2.75945791       0.00000000
Si       0.62853336       2.37182400      -2.88185013       0.00000000
Si      -2.67755472       2.70045841       0.00677658       0.00000000
Si      -2.68828983      -2.69078220       0.00627997       0.00000000
Si       2.74087395      -2.69715159       0.02775465       0.00000000
Si      -2.69845479      -0.00381186       2.74224089       0.00000000
