10
Lattice="16.28999089631971 0.0 0.0 0.0 16.28999089631971 0.0 0.0 0.0 34.48637585096406" Properties=species:S:1:pos:R:3:initial_magmoms:R:1 pbc="T T T"
Si      -0.82945422      -1.85818401      -1.16408240       0.00000000
Si       1.22153823      -1.48346514       1.40801744       0.00000000
Si      -1.51933572       1.21368645       1.38026279       0.00000000
Si       0.89461422       1.82136861      -1.37919513       0.00000000
Si       2.58812262       2.62558962      -0.00969413       0.00000000
Si      -0.14993316       2.57087151       2.76115323       0.00000000
Si       2.56754835      -0.15288165       2.76536057       0.00000000
Si      -0.57329397      -1.49455863      -3.43827432       0.00000000
Si      -2.85364962       2.54907549      -0.23357635       0.00000000
Si      -2.72785824      -2.73880512       0.02519921       0.00000000
