10
Lattice="16.28999089631971 0.0 0.0 0.0 16.28999089631971 0.0 0.0 0.0 34.48637585096406" Properties=species:S:1:pos:R:3:initial_magmoms:R:1 pbc="T T T"
Si       1.35827649       1.35596331       1.35693619       0.00000000
Si       1.35728280      -1.35811359      -1.35672927       0.00000000
Si      -1.35773892       1.35734796      -1.35755694       0.00000000
Si      -1.35791811      -1.35817875       1.35735003       0.00000000
Si      -2.71265967      -0.00167787      -2.71449313       0.00000000
Si      -0.00063531      -2.71450044      -2.71356200       0.00000000
Si       0.00001629       2.71479295      -2.71397584       0.00000000
Si       2.71511946      -0.00107514       2.71366546       0.00000000
Si      -2.71469592       2.71439614       0.00079319       0.00000000
Si       2.71484253       2.71448440       0.00003449       0.00000000
