10
Lattice="16.28999089631971 0.0 0.0 0.0 16.28999089631971 0.0 0.0 0.0 34.48637585096406" Properties=species:S:1:pos:R:3:initial_magmoms:R:1 pbc="T T T"
Si       1.16563095      -1.56263454      -1.27168582       0.00000000
Si      -1.57682313       1.17123471      -1.25061463       0.00000000
Si      -1.12697478      -1.66128678       1.22706042       0.00000000
Si       1.29521790       1.14077241       1.70700759       0.00000000
Si      -0.20603592       2.49760562      -2.61358594       0.00000000
Si       2.51103834      -0.21654297      -2.61703458       0.00000000
Si       2.61032589       2.59446645       0.28275395       0.00000000
Si       2.39844186      -2.93004972       0.16763837       0.00000000
Si      -2.41877178      -0.54336924       2.90385793       0.00000000
Si      -2.90258478       2.52232814       0.27837418       0.00000000
