10
Lattice="16.28999089631971 0.0 0.0 0.0 16.28999089631971 0.0 0.0 0.0 34.48637585096406" Properties=species:S:1:pos:R:3:initial_magmoms:R:1 pbc="T T T"
Si      -2.30573547       0.46033911       0.09845866       0.00000000
Si       0.51155487      -2.29954527       0.40793957       0.00000000
Si       1.04976018      -0.06032187      -2.15915871       0.00000000
Si       1.00183500       1.57869648       1.55692279       0.00000000
Si      -2.52157797       0.91650798       2.40194293       0.00000000
Si       3.27122748      -0.44294139      -1.46622358       0.00000000
Si       2.64091851      -2.52268569      -0.59264870       0.00000000
Si       1.79181855       3.41637138       0.23209344       0.00000000
Si       3.10352193       0.84893706       2.23527019       0.00000000
Si      -1.13485914      -3.73984191      -0.61327156       0.00000000
