10
Lattice="16.28999089631971 0.0 0.0 0.0 16.28999089631971 0.0 0.0 0.0 34.48637585096406" Properties=species:S:1:pos:R:3:initial_magmoms:R:1 pbc="T T T"
Si      -1.58594553       1.44094239      -1.00317475       0.00000000
Si       1.57765392       0.75596728       1.63989706       0.00000000
Si       1.26684072      -0.12522123      -2.13481132       0.00000000
Si      -0.71814465      -2.08091718       1.19267749       0.00000000
Si       0.24132006       2.98268990      -1.26561621       0.00000000
Si       3.08936592      -0.88598052       0.54016041       0.00000000
Si       1.51788591      -2.84403852       0.91233758       0.00000000
Si      -1.89641664      -0.26969724      -2.77270617       0.00000000
Si       1.46520405       3.05987192       0.79415271       0.00000000
Si       0.88690905      -2.37915450      -2.81636594       0.00000000
