10
Lattice="16.28999089631971 0.0 0.0 0.0 16.28999089631971 0.0 0.0 0.0 34.48637585096406" Properties=species:S:1:pos:R:3:initial_magmoms:R:1 pbc="T T T"
Si       0.68188311      -0.97516664      -2.05569953       0.00000000
Si      -2.00930634       1.27620747       0.33593197       0.00000000
Si      -0.14820642      -1.24688058       2.05859638       0.00000000
Si       2.00713977       1.40067936       0.21091879       0.00000000
Si      -0.68282793       2.04112071       2.49840138       0.00000000
Si       2.87469630      -1.80926025      -0.92771852       0.00000000
Si      -1.63431054      -2.96157806       1.34283125       0.00000000
Si      -2.53316016       2.02406508      -1.92051286       0.00000000
Si      -1.41284799       0.10699272       3.60134527       0.00000000
Si       1.66096098       0.58754772      -3.47464225       0.00000000
