10
Lattice="16.28999089631971 0.0 0.0 0.0 16.28999089631971 0.0 0.0 0.0 34.48637585096406" Properties=species:S:1:pos:R:3:initial_magmoms:R:1 pbc="T T T"
Si      -0.96479154       0.36931059      -2.06607993       0.00000000
Si       2.13263793       0.85515984       0.25285425       0.00000000
Si      -0.37014138      -2.25892520       0.37107361       0.00000000
Si      -1.36992384       1.29381696       1.42739189       0.00000000
Si      -2.66576076      -2.17310948      -0.32358585       0.00000000
Si      -3.26177928       0.00521280      -1.26840961       0.00000000
Si       0.71122140      -2.44091708       2.43263583       0.00000000
Si       2.14417125       1.08756927       2.61148227       0.00000000
Si       0.29985003      -0.98456271      -3.60882882       0.00000000
Si       0.63490275      -0.43302241       3.68638872       0.00000000
