10
Lattice="16.28999089631971 0.0 0.0 0.0 16.28999089631971 0.0 0.0 0.0 34.48637585096406" Properties=species:S:1:pos:R:3:initial_magmoms:R:1 pbc="T T T"
Si       1.94492826       1.36980981       0.08290529       0.00000000
Si      -1.89853434       1.41889158      -0.22023012       0.00000000
Si      -0.10709046      -1.35094273      -1.96027567       0.00000000
Si      -0.66078756      -0.73247822       2.21133663       0.00000000
Si      -1.91125683       2.39410872      -2.38897605       0.00000000
Si       3.85991550       0.02583594       0.46249705       0.00000000
Si      -1.39566204       3.61768320       0.49950095       0.00000000
Si      -0.72373212      -3.38412437       1.89530330       0.00000000
Si       2.52553644       2.39917491      -1.96344842       0.00000000
Si       1.73729592      -2.80736063      -2.27634348       0.00000000
