10
Lattice="16.28999089631971 0.0 0.0 0.0 16.28999089631971 0.0 0.0 0.0 34.48637585096406" Properties=species:S:1:pos:R:3:initial_magmoms:R:1 pbc="T T T"
Si       1.34047152       1.35119034       1.37474841       0.00000000
Si      -1.30862457       1.32457248      -1.44114507       0.00000000
Si      -1.37461536      -1.36306575       1.36743730       0.00000000
Si       1.37863899      -1.34982198      -1.44877001       0.00000000
Si      -2.10520557      -0.63154701      -2.79015425       0.00000000
Si      -0.22744098      -2.49222339      -2.76794502       0.00000000
Si       2.72394864       2.67660990       0.00795601       0.00000000
Si       2.70014895      -2.71661814       0.00329690       0.00000000
Si      -2.73114882       2.69026092      -0.00075525       0.00000000
Si       2.70018153      -0.00330687       2.73127076       0.00000000
