10
Lattice="16.28999089631971 0.0 0.0 0.0 16.28999089631971 0.0 0.0 0.0 34.48637585096406" Properties=species:S:1:pos:R:3:initial_magmoms:R:1 pbc="T T T"
Si       1.35661491       1.35697329       1.35762592       0.00000000
Si      -1.35715248      -1.35769005       1.35676376       0.00000000
Si      -1.35741312       1.35765747      -1.35724657       0.00000000
Si       1.35782037      -1.35721764      -1.35735003       0.00000000
Si      -0.00032580      -2.71156824       2.71670026       0.00000000
Si       2.71480995      -2.71446786      -0.00003449       0.00000000
Si      -2.71492398      -2.71448415       0.00010346       0.00000000
Si       2.71609686       0.00169416      -2.71363097       0.00000000
Si      -2.71528236       0.00211770      -2.71452762       0.00000000
Si       0.00174303      -2.71533123      -2.71459659       0.00000000
