10
Lattice="16.28999089631971 0.0 0.0 0.0 16.28999089631971 0.0 0.0 0.0 34.48637585096406" Properties=species:S:1:pos:R:3:initial_magmoms:R:1 pbc="T T T"
Si       1.07557983       1.59573582      -1.38359417       0.00000000
Si      -1.63390329      -1.12329324      -1.33831354       0.00000000
Si      -1.55188314       0.89977815       1.71690518       0.00000000
Si       1.84858920      -0.09788661       1.71938820       0.00000000
Si       1.75405833      -1.88501364       0.08083611       0.00000000
Si      -0.27245025      -2.44263663      -2.86281912       0.00000000
Si       2.45477268       0.28396728      -2.86330193       0.00000000
Si       2.44084473       2.91193524       0.08880247       0.00000000
Si      -3.11528331      -2.27683701       0.13594537       0.00000000
Si       1.42501662      -2.90022273       2.26737702       0.00000000
