10
Lattice="16.28999089631971 0.0 0.0 0.0 16.28999089631971 0.0 0.0 0.0 34.48637585096406" Properties=species:S:1:pos:R:3:initial_magmoms:R:1 pbc="T T T"
Si      -1.35260335      -1.36964691      -1.33773072       0.00000000
Si      -1.35693649       1.35861858       1.36331617       0.00000000
Si       1.35890691      -1.35817875       1.36266093       0.00000000
Si       1.37303034       1.37681451      -1.37647273       0.00000000
Si      -0.01742704      -2.72975603      -2.66352569       0.00000000
Si      -2.58748309      -0.06494823      -2.80373358       0.00000000
Si      -2.71042372      -2.71341227       0.00675933       0.00000000
Si      -2.71358398       2.71521720       0.00448323       0.00000000
Si       2.71602681       2.71419093       0.00641447       0.00000000
Si      -2.71234594       0.00016290       2.71987301       0.00000000
