10
Lattice="16.28999089631971 0.0 0.0 0.0 16.28999089631971 0.0 0.0 0.0 34.48637585096406" Properties=species:S:1:pos:R:3:initial_magmoms:R:1 pbc="T T T"
Si       1.27039194      -1.46605113       1.26067431       0.00000000
Si      -1.45759662       1.30306968       1.26853721       0.00000000
Si      -1.84985982      -0.93621888      -1.23875993       0.00000000
Si       1.98138528       0.07768701      -2.36255744       0.00000000
Si      -0.30907017      -1.00792746      -3.01466069       0.00000000
Si       2.59887402      -0.07369596       2.62291451       0.00000000
Si      -0.11158650       2.63365317       2.62588034       0.00000000
Si      -0.11308518      -2.79147069       2.62746671       0.00000000
Si      -2.82771594      -0.07527609       2.62029354       0.00000000
Si      -3.50858907       0.92835081      -1.30356263       0.00000000
