10
Lattice="16.28999089631971 0.0 0.0 0.0 16.28999089631971 0.0 0.0 0.0 34.48637585096406" Properties=species:S:1:pos:R:3:initial_magmoms:R:1 pbc="T T T"
Si      -1.85258025       0.91597041      -0.99700168       0.00000000
Si       0.08646732      -2.35343259      -0.07793925       0.00000000
Si       0.49101318       0.93488310       2.12122368       0.00000000
Si       1.90496889       0.21856293      -1.40721735       0.00000000
Si       2.05869762      -2.08814994       1.25592554       0.00000000
Si       3.52285911      -0.49293540       0.12428897       0.00000000
Si       1.25796267      -1.01351493       3.22296054       0.00000000
Si      -1.22227128       2.99571471      -1.87057656       0.00000000
Si       1.48548510      -1.21511997      -3.22678853       0.00000000
Si      -2.34771480      -0.25420545      -2.93092975       0.00000000
