10
Lattice="16.28999089631971 0.0 0.0 0.0 16.28999089631971 0.0 0.0 0.0 34.48637585096406" Properties=species:S:1:pos:R:3:initial_magmoms:R:1 pbc="T T T"
Si      -1.34540739      -1.34609157       1.34534876       0.00000000
Si       1.35731538      -1.35526284      -1.35600506       0.00000000
Si      -1.35684297       1.35703845      -1.35672927       0.00000000
Si       1.34628705       1.37350764       1.37028242       0.00000000
Si      -2.51103834       0.21654297       2.61703458       0.00000000
Si       2.60020980      -0.05709645       2.71959712       0.00000000
Si      -0.00048870      -2.71386513      -2.71335508       0.00000000
Si       2.71476108       0.00050499      -2.71342405       0.00000000
Si      -2.71511946       0.00107514      -2.71366546       0.00000000
Si      -0.00027693       2.71555954      -2.71363097       0.00000000
