10
Lattice="16.28999089631971 0.0 0.0 0.0 16.28999089631971 0.0 0.0 0.0 34.48637585096406" Properties=species:S:1:pos:R:3:initial_magmoms:R:1 pbc="T T T"
Si      -1.35867952      -1.35679410      -1.35648787       0.00000000
Si      -1.35710971       1.35723393       1.35766040       0.00000000
Si       1.35783177      -1.35767376       1.35759143       0.00000000
Si       1.35991689       1.35653346      -1.35690170       0.00000000
Si       0.00008471       2.71272483       2.71432070       0.00000000
Si       2.71428378      -0.00122175      -2.71338957       0.00000000
Si      -2.71373059       2.71490769       0.00058627       0.00000000
Si      -2.71408897      -2.71524978       0.00006897       0.00000000
Si       2.71443039       0.00084708       2.71511389       0.00000000
Si       0.00043006      -2.71557558       2.71449313       0.00000000
