10
Lattice="16.28999089631971 0.0 0.0 0.0 16.28999089631971 0.0 0.0 0.0 34.48637585096406" Properties=species:S:1:pos:R:3:initial_magmoms:R:1 pbc="T T T"
Si       2.10168693      -0.72975942       0.67834739       0.00000000
Si       0.78998355       1.83767490      -1.32482936       0.00000000
Si      -1.00183500      -1.57869648      -1.55692279       0.00000000
Si      -0.84075948       1.29028203       1.89171672       0.00000000
Si       1.02763836       2.76468408       2.01941984       0.00000000
Si       3.23991810      -0.71581518      -1.33055410       0.00000000
Si       2.87202474       1.30826619       1.70335203       0.00000000
Si      -3.52341297      -0.66218850       0.84502014       0.00000000
Si      -3.30757047      -1.11835737      -1.45846414       0.00000000
Si      -3.14348130       1.59174477       1.52657477       0.00000000
