10
Lattice="16.28999089631971 0.0 0.0 0.0 16.28999089631971 0.0 0.0 0.0 34.48637585096406" Properties=species:S:1:pos:R:3:initial_magmoms:R:1 pbc="T T T"
Si       1.43391815      -1.12180012      -1.46186764       0.00000000
Si       1.61862231       1.17934061       1.23463536       0.00000000
Si      -0.76435938       1.67016646      -1.63174762       0.00000000
Si      -1.37832948      -1.82055967       1.27506376       0.00000000
Si      -2.43388890      -0.17366121       2.55287437       0.00000000
Si       0.15980490      -1.07128483      -3.39269193       0.00000000
Si       0.28344600       2.53944973       2.56043034       0.00000000
Si      -2.43382374       2.66941135      -0.25229182       0.00000000
Si       2.34511559       3.00882979      -0.16140799       0.00000000
Si      -2.15023113      -0.62502028      -3.13062981       0.00000000
