10
Lattice="16.28999089631971 0.0 0.0 0.0 16.28999089631971 0.0 0.0 0.0 34.48637585096406" Properties=species:S:1:pos:R:3:initial_magmoms:R:1 pbc="T T T"
Si      -1.34003169      -1.29404243       1.46674087       0.00000000
Si       2.24453394       0.31172381       0.71342006       0.00000000
Si      -0.12473253       2.41122299      -0.09569975       0.00000000
Si      -1.04054004      -1.00930952      -1.93410050       0.00000000
Si       3.07244061       1.15432732      -1.32955399       0.00000000
Si      -3.18441807       0.16237546       1.78280868       0.00000000
Si      -1.98912303       2.76385262      -1.38259407       0.00000000
Si      -3.49839153       1.24326094      -0.30768762       0.00000000
Si       2.33323299      -0.47289611      -2.90068518       0.00000000
Si      -0.97213833      -3.31812380      -1.56716525       0.00000000
