10
Lattice="16.28999089631971 0.0 0.0 0.0 16.28999089631971 0.0 0.0 0.0 34.48637585096406" Properties=species:S:1:pos:R:3:initial_magmoms:R:1 pbc="T T T"
Si      -1.56094038       1.11149928       1.35997099       0.00000000
Si       1.03478967      -1.43410644       1.60209997       0.00000000
Si      -0.81169812      -1.10519505      -2.16119341       0.00000000
Si       2.00357226       1.63942560       0.08459513       0.00000000
Si       1.10328912      -2.44916892      -1.78160166       0.00000000
Si      -2.26468467       2.33960238      -0.73004250       0.00000000
Si       2.70425403      -2.43335133       0.22264417       0.00000000
Si      -0.28725786       2.47023189       2.87089035       0.00000000
Si       2.51717967      -0.25936938       2.94881926       0.00000000
Si       3.06748845       1.59904269      -2.10422188       0.00000000
