10
Lattice="16.28999089631971 0.0 0.0 0.0 16.28999089631971 0.0 0.0 0.0 34.48637585096406" Properties=species:S:1:pos:R:3:initial_magmoms:R:1 pbc="T T T"
Si      -1.35345465       1.35814617       1.35966061       0.00000000
Si       1.36423863      -1.35842310       1.35948818       0.00000000
Si      -1.32848208      -1.39235517      -1.36224020       0.00000000
Si       1.37474568       1.36739889      -1.38389420       0.00000000
Si      -2.59887402       0.07369596      -2.62291451       0.00000000
Si      -2.71046052       2.70734913       0.00296583       0.00000000
Si      -2.71044423      -0.00112401       2.71749345       0.00000000
Si      -2.71195920      -2.71777473       0.00455220       0.00000000
Si       0.00439830       2.71313208       2.71770037       0.00000000
Si       0.00387702      -2.71647153       2.71738999       0.00000000
