10
Lattice="16.28999089631971 0.0 0.0 0.0 16.28999089631971 0.0 0.0 0.0 34.48637585096406" Properties=species:S:1:pos:R:3:initial_magmoms:R:1 pbc="T T T"
Si       1.35513252       1.33662708       1.38858435       0.00000000
Si      -1.37474568      -1.36739889       1.38389420       0.00000000
Si       1.28249541      -1.48385610      -1.43661011       0.00000000
Si      -0.75549762       1.89086175      -1.36835463       0.00000000
Si       2.71816897       2.68982109       0.00847676       0.00000000
Si       2.68309448      -2.73248460       0.02259204       0.00000000
Si      -2.70958086       2.70831024      -0.00615237       0.00000000
Si      -0.01392795       2.70345582       2.74172704       0.00000000
Si       2.70089795      -0.00970884       2.74658962       0.00000000
Si      -2.70322776      -2.75975406       0.02165401       0.00000000
