10
Lattice="16.28999089631971 0.0 0.0 0.0 16.28999089631971 0.0 0.0 0.0 34.48637585096406" Properties=species:S:1:pos:R:3:initial_magmoms:R:1 pbc="T T T"
Si      -1.34918667      -1.33084413      -1.36541984       0.00000000
Si      -1.40568039       1.23039999       1.40683800       0.00000000
Si       1.36708938       1.38280923      -1.36076418       0.00000000
Si       1.31988096      -1.46748465       1.39328485       0.00000000
Si       0.42808491       2.03183541       2.64627904       0.00000000
Si       2.24670444       0.32871591       2.62631142       0.00000000
Si      -2.71326240      -2.67481800       0.01079424       0.00000000
Si       0.00351864      -2.68897401      -2.71952815       0.00000000
Si       2.73554616      -2.69127090       0.00262097       0.00000000
Si      -2.70865233       0.02410920      -2.71997647       0.00000000
