10
Lattice="16.28999089631971 0.0 0.0 0.0 16.28999089631971 0.0 0.0 0.0 34.48637585096406" Properties=species:S:1:pos:R:3:initial_magmoms:R:1 pbc="T T T"
Si      -0.56487204      -2.15866935       0.59813204       0.00000000
Si      -1.84274109       0.62428167      -1.36279888       0.00000000
Si      -0.49026384       1.23994593       1.97910524       0.00000000
Si       2.13969543       0.02964780      -1.14281016       0.00000000
Si       2.90135718       2.06171127       0.95272115       0.00000000
Si       1.03430097       2.96854299       1.96851792       0.00000000
Si       1.05301818      -2.87016768       2.12963836       0.00000000
Si      -3.69211221       0.61848243       0.13477283       0.00000000
Si      -2.72158659       1.92430512       1.82736510       0.00000000
Si       2.05970990      -2.08826397      -2.46922589       0.00000000
