10
Lattice="16.28999089631971 0.0 0.0 0.0 16.28999089631971 0.0 0.0 0.0 34.48637585096406" Properties=species:S:1:pos:R:3:initial_magmoms:R:1 pbc="T T T"
Si      -1.78026894      -1.52236566       0.10187281       0.00000000
Si      -0.29170503       1.15992945      -2.04559501       0.00000000
Si       2.05196563      -1.13656959      -0.49687998       0.00000000
Si      -0.17871759       1.21621140       2.10304935       0.00000000
Si       1.86639417       2.34043317       2.17485002       0.00000000
Si       1.25157699      -2.95018416      -1.89506190       0.00000000
Si       1.23285978       2.88852651      -2.05618234       0.00000000
Si      -1.01331945      -3.47076369       1.20360968       0.00000000
Si      -2.52302778       1.84428864      -2.19733515       0.00000000
Si      -3.74165010      -0.31944690       0.78266874       0.00000000
