10
Lattice="16.28999089631971 0.0 0.0 0.0 16.28999089631971 0.0 0.0 0.0 34.48637585096406" Properties=species:S:1:pos:R:3:initial_magmoms:R:1 pbc="T T T"
Si      -1.52456481      -1.72859706       0.01058732       0.00000000
Si       1.86705621      -0.90683172      -1.01579677       0.00000000
Si      -0.45051624       1.80098982      -1.47467274       0.00000000
Si       0.69905621       0.64715283       2.19233462       0.00000000
Si      -0.53921529       2.58560974       2.13943249       0.00000000
Si       3.24679967       0.96032808      -0.31941299       0.00000000
Si       0.28869138       3.42821325       0.09645845       0.00000000
Si       2.43936953      -2.43015849       0.70759186       0.00000000
Si      -1.03430097      -2.96854299      -1.96851792       0.00000000
Si      -1.23285978      -2.88852651       2.05618234       0.00000000
