10
Lattice="16.28999089631971 0.0 0.0 0.0 16.28999089631971 0.0 0.0 0.0 34.48637585096406" Properties=species:S:1:pos:R:3:initial_magmoms:R:1 pbc="T T T"
Si       0.76115188      -1.26363159       1.85688546       0.00000000
Si      -2.05196563       1.13656959       0.49687998       0.00000000
Si      -0.80038864      -1.81361457      -1.39818192       0.00000000
Si       1.62026367       1.59493761      -0.85171050       0.00000000
Si      -2.34367066       2.29649904      -1.54871503       0.00000000
Si      -1.10755288      -2.19201498       2.99235002       0.00000000
Si       2.21090649      -2.97952245       1.18698723       0.00000000
Si      -3.83223457      -0.38579607       0.59875279       0.00000000
Si      -2.41827886      -1.10211624      -2.92968824       0.00000000
Si       1.31028778       0.09399330       3.74049787       0.00000000
