10
Lattice="16.28999089631971 0.0 0.0 0.0 16.28999089631971 0.0 0.0 0.0 34.48637585096406" Properties=species:S:1:pos:R:3:initial_magmoms:R:1 pbc="T T T"
Si       2.19243852       0.10432116      -0.75211379       0.00000000
Si      -0.50749866      -0.22558392       2.34490179       0.00000000
Si      -1.25393252       1.27873242      -1.62924076       0.00000000
Si      -3.12467354       1.08398547      -0.14204946       0.00000000
Si       2.32692876      -2.17693044      -1.24157920       0.00000000
Si      -2.37751898       1.24756965       2.21284821       0.00000000
Si       2.21832333       0.74344302      -3.00242005       0.00000000
Si       1.46888559       0.54064881       3.50216727       0.00000000
Si       0.45607113      -3.08019465      -2.40287407       0.00000000
Si      -1.80306842      -0.07889247      -3.51285318       0.00000000
