10
Lattice="16.28999089631971 0.0 0.0 0.0 16.28999089631971 0.0 0.0 0.0 34.48637585096406" Properties=species:S:1:pos:R:3:initial_magmoms:R:1 pbc="T T T"
Si       1.33431390      -1.33538904       1.61383914       0.00000000
Si      -1.41014385      -1.22802165      -1.66577707       0.00000000
Si      -1.34324082       1.36506937       1.62061572       0.00000000
Si       1.96284726       1.03643496      -1.26801099       0.00000000
Si      -2.58545106      -2.64072303       0.03070669       0.00000000
Si      -2.92833927       0.41819688      -2.36671305       0.00000000
Si       2.85364962      -2.54907549       0.23357635       0.00000000
Si      -2.74363510       2.71933761       0.32978995       0.00000000
Si       2.73614985       2.75276143       0.21396739       0.00000000
Si       3.74826384      -0.72770688      -1.14561877       0.00000000
