10
Lattice="16.28999089631971 0.0 0.0 0.0 16.28999089631971 0.0 0.0 0.0 34.48637585096406" Properties=species:S:1:pos:R:3:initial_magmoms:R:1 pbc="T T T"
Si      -1.67516914       1.07152362      -1.25033529       0.00000000
Si       1.34157826       1.37111301       1.37400351       0.00000000
Si      -1.36303645      -1.35319401       1.38010760       0.00000000
Si       1.47996670      -1.28863674      -1.58984696       0.00000000
Si       2.71144183      -2.67408495      -0.00043453       0.00000000
Si      -3.47366659      -0.79895934      -1.37683139       0.00000000
Si      -2.71816897      -2.68982109      -0.00847676       0.00000000
Si       2.70127687       0.01288539       2.73552639       0.00000000
Si      -0.01727102      -2.69952993       2.73811286       0.00000000
Si       2.72217694       2.71715566       0.00006208       0.00000000
