10
Lattice="16.28999089631971 0.0 0.0 0.0 16.28999089631971 0.0 0.0 0.0 34.48637585096406" Properties=species:S:1:pos:R:3:initial_magmoms:R:1 pbc="T T T"
Si      -1.60632173       1.04852214       1.35652235       0.00000000
Si      -1.62386606      -1.15828416      -1.32089791       0.00000000
Si       1.15218518       1.73910494      -1.23864785       0.00000000
Si       1.63599818      -1.32659244       1.38683589       0.00000000
Si      -2.25042833      -0.96150096       2.64965871       0.00000000
Si      -0.22544871      -2.35261809      -2.77739632       0.00000000
Si       2.47794683       0.38801151      -2.76763667       0.00000000
Si       2.92779518      -2.44450998      -0.28996161       0.00000000
Si      -0.70514034       2.63179678       2.82509100       0.00000000
Si      -2.51499422      -3.06584316      -0.12411654       0.00000000
