10
Lattice="16.28999089631971 0.0 0.0 0.0 16.28999089631971 0.0 0.0 0.0 34.48637585096406" Properties=species:S:1:pos:R:3:initial_magmoms:R:1 pbc="T T T"
Si      -1.45995867       1.49099130       1.15312159       0.00000000
Si       1.73177361       1.34403903      -1.02617717       0.00000000
Si       0.76743819      -1.30341177       1.89706211       0.00000000
Si      -0.84822030      -1.59130494      -1.70255884       0.00000000
Si       3.47822451       0.70633440       0.41359534       0.00000000
Si       2.70027927      -0.09148464       2.47733019       0.00000000
Si       0.56200500      -3.47012838       1.04245475       0.00000000
Si      -2.24499006       0.17316270       3.05483937       0.00000000
Si      -1.20818043      -3.62589336      -0.48236121       0.00000000
Si      -0.25844085       3.47738462       1.72335414       0.00000000
