10
Lattice="16.28999089631971 0.0 0.0 0.0 16.28999089631971 0.0 0.0 0.0 34.48637585096406" Properties=species:S:1:pos:R:3:initial_magmoms:R:1 pbc="T T T"
Si      -1.73205054       1.35193968      -0.84233020       0.00000000
Si       1.03239504       1.05870339       1.85322990       0.00000000
Si       1.28037771      -0.12463479      -2.00010746       0.00000000
Si      -0.69555042      -2.21244264       0.61613394       0.00000000
Si      -2.32847305      -0.27262944       2.39328685       0.00000000
Si      -3.04622185      -0.58129236      -1.35086658       0.00000000
Si       2.51165736       2.41126209       0.51743387       0.00000000
Si      -0.94872960       1.59453036       3.08967063       0.00000000
Si       3.21321879       1.08729234      -1.41983937       0.00000000
Si       1.79108550      -0.81257778       3.14002076       0.00000000
