10
Lattice="16.28999089631971 0.0 0.0 0.0 16.28999089631971 0.0 0.0 0.0 34.48637585096406" Properties=species:S:1:pos:R:3:initial_magmoms:R:1 pbc="T T T"
Si      -2.28839037      -0.47169324       0.11425343       0.00000000
Si       0.48913983      -2.32140645       0.37259101       0.00000000
Si       0.25935309      -0.15851799      -2.39749419       0.00000000
Si       0.31047111       1.71063963       1.76953142       0.00000000
Si       3.16325736       0.14447601       0.63789485       0.00000000
Si       1.89641664       0.26969724       2.77270617       0.00000000
Si       2.78332569      -2.10945726      -0.04365978       0.00000000
Si      -2.35391219      -1.66693941       2.15295116       0.00000000
Si      -0.54421632       1.97323118      -2.96669214       0.00000000
Si       2.91191895       2.23838188      -0.51819257       0.00000000
