10
Lattice="16.290000149 0.0 0.0 0.0 16.290000149 0.0 0.0 0.0 29.1751946751" Properties=species:S:1:pos:R:3:initial_magmoms:R:1 pbc="T T T"
Si      -1.08540271      -1.16638030       1.70310199       0.00000000
Si       0.87922018      -1.77644081      -1.28861000       0.00000000
Si       1.87352921       1.45930708       0.15179854       0.00000000
Si      -1.59651775       1.30176649      -1.21351305       0.00000000
H        0.47389239       2.29003193       1.78070801       0.00000000
H       -1.24212880      -0.37033686       2.97919583       0.00000000
H        2.58908375       1.54284220       1.47786949       0.00000000
Si       1.99831061      -0.34108002      -2.84300602       0.00000000
Si      -3.29690055      -1.09964017       0.89080622       0.00000000
Si      -0.28395099       2.65460213      -2.60444045       0.00000000
