10
Lattice="16.290000149 0.0 0.0 0.0 16.290000149 0.0 0.0 0.0 29.1751946751" Properties=species:S:1:pos:R:3:initial_magmoms:R:1 pbc="T T T"
Si      -1.33760449       1.15409764       1.55743608       0.00000000
Si      -1.30798927      -1.44801811      -1.36825244       0.00000000
Si       1.42697143      -1.36682875       1.33492854       0.00000000
Si       0.83056195       1.99661645      -1.09542849       0.00000000
H        1.91850590       0.28971765      -1.88141494       0.00000000
Si      -0.91264726       3.54015912      -0.63965447       0.00000000
Si      -2.74418085       2.51872724       0.30472032       0.00000000
Si      -2.70824510      -0.02386485      -2.58952609       0.00000000
Si       0.08449623       2.61374681       2.78229828       0.00000000
Si      -2.63541251      -2.82981738       0.00704289       0.00000000
