10
Lattice="16.290000149 0.0 0.0 0.0 16.290000149 0.0 0.0 0.0 29.1751946751" Properties=species:S:1:pos:R:3:initial_magmoms:R:1 pbc="T T T"
H       -1.03298149      -1.10731276       0.21612984       0.00000000
Si       1.48664985      -1.08002701      -1.42366197       0.00000000
Si       1.16811356      -0.15794784       2.01737719       0.00000000
Si      -1.26413659       1.63836676      -1.15778843       0.00000000
H       -1.55465245       0.43443801       2.03330684       0.00000000
Si       0.00575037      -2.21513051       2.61436002       0.00000000
Si      -2.56096721      -0.03401352      -2.33068960       0.00000000
Si      -2.00632529      -0.85033801       2.69447510       0.00000000
Si       0.06467130      -2.51739146      -2.58959028       0.00000000
Si       3.05132880      -2.15277239      -0.05756266       0.00000000
