10
Lattice="16.290000149 0.0 0.0 0.0 16.290000149 0.0 0.0 0.0 29.1751946751" Properties=species:S:1:pos:R:3:initial_magmoms:R:1 pbc="T T T"
Si      -1.37187865      -1.40659264      -1.31194724       0.00000000
Si      -1.34579836       1.27936774       1.46077282       0.00000000
Si       1.33985251      -1.33617097       1.42164889       0.00000000
Si       1.34110684       1.41846805      -1.35981498       0.00000000
Si       2.67076181      -0.02187747      -2.67420418       0.00000000
Si       0.05934447      -2.77847130      -2.59675862       0.00000000
Si      -2.68074758      -2.69594615       0.15842131       0.00000000
Si      -2.77917177       2.59889033       0.17799786       0.00000000
Si      -2.72127710      -0.04452057      -2.68770062       0.00000000
Si       2.68814324       2.75102265       0.02902932       0.00000000
