10
Lattice="16.290000149 0.0 0.0 0.0 16.290000149 0.0 0.0 0.0 29.1751946751" Properties=species:S:1:pos:R:3:initial_magmoms:R:1 pbc="T T T"
Si       1.67767454      -1.67762567      -0.24912699       0.00000000
Si      -1.86062753      -0.84150883      -1.25368729       0.00000000
Si      -0.63012979       0.33238116       2.32896827       0.00000000
Si       0.69395401       1.85704373      -1.42217404       0.00000000
H        2.22193973       0.78374449       1.12464540       0.00000000
H       -1.06210801       2.49333113       0.10718967       0.00000000
H       -2.61620660      -0.28540080       1.24449710       0.00000000
H        0.59535064      -1.62377092       2.55175005       0.00000000
H       -0.49182768       2.36755604      -2.22195365       0.00000000
H       -3.26577036       0.13939353       1.20368101       0.00000000
