10
Lattice="16.290000149 0.0 0.0 0.0 16.290000149 0.0 0.0 0.0 29.1751946751" Properties=species:S:1:pos:R:3:initial_magmoms:R:1 pbc="T T T"
Si      -0.91241920       0.90282439      -0.79137716       0.00000000
Si       0.90784171      -1.56447532       1.50549840       0.00000000
H       -2.05188842      -0.43802181       1.29356978       0.00000000
Si       1.92738395       0.58394764       1.90817443       0.00000000
Si       1.87791122      -1.97572615      -0.64375067       0.00000000
Si      -1.40152645      -1.65810373       1.87176379       0.00000000
Si      -2.20827242      -0.56475802      -2.08369240       0.00000000
Si       0.43543170       2.20507958      -2.18390920       0.00000000
Si      -2.05322420       2.31689414       0.68692996       0.00000000
Si       3.04647438       2.01930842       0.35377841       0.00000000
