10
Lattice="16.290000149 0.0 0.0 0.0 16.290000149 0.0 0.0 0.0 29.1751946751" Properties=species:S:1:pos:R:3:initial_magmoms:R:1 pbc="T T T"
Si      -1.37064550       1.34547256      -1.35390408       0.00000000
Si      -1.33087346      -1.39686751       1.34436380       0.00000000
Si       1.29912751      -1.35583300      -1.41843961       0.00000000
Si       1.35469270       1.38240199       1.35008213       0.00000000
Si       2.77609296       0.01316232       2.60575334       0.00000000
Si      -2.73447201      -0.07859925       2.65893972       0.00000000
Si       2.60936480      -2.78125689      -0.12011428       0.00000000
Si      -0.01011609       2.69397506      -2.70903353       0.00000000
Si      -2.70825853       2.70989039       0.01951821       0.00000000
Si      -2.71836119      -0.03337821      -2.70562003       0.00000000
