10
Lattice="16.290000149 0.0 0.0 0.0 16.290000149 0.0 0.0 0.0 29.1751946751" Properties=species:S:1:pos:R:3:initial_magmoms:R:1 pbc="T T T"
Si       1.75023020       0.32167863      -1.48840173       0.00000000
Si      -1.91744705       1.06053277      -0.77711049       0.00000000
Si       0.63744400       0.67810547       2.14598144       0.00000000
Si      -0.04649166      -2.14666527       0.97681469       0.00000000
Si       1.86261491      -1.98410736      -1.72259102       0.00000000
Si      -0.60906682      -1.10687456       2.98024614       0.00000000
H        1.32809113       2.98209467       0.00846081       0.00000000
Si      -0.75645874       2.49971518      -2.28033322       0.00000000
Si      -2.88751656       1.47178359       1.37213858       0.00000000
Si       2.14988906      -2.86906162       0.51818063       0.00000000
