10
Lattice="16.290000149 0.0 0.0 0.0 16.290000149 0.0 0.0 0.0 29.1751946751" Properties=species:S:1:pos:R:3:initial_magmoms:R:1 pbc="T T T"
Si       1.36550926       1.35547462       1.34661029       0.00000000
Si       1.36979353      -1.36355446      -1.33613639       0.00000000
Si      -1.34840476      -1.34763913       1.37806115       0.00000000
Si      -1.34876314       1.36031275      -1.36542829       0.00000000
Si      -0.00923643       2.72034857       2.67860380       0.00000000
Si       2.72121194       0.01185912      -2.68286338       0.00000000
Si       2.71652042      -0.02070459       2.68884429       0.00000000
Si      -2.69658146      -2.70930395       0.02765808       0.00000000
Si       0.02254536      -2.72018567      -2.69861798       0.00000000
Si      -2.70892928       0.00597843      -2.71909897       0.00000000
