10
Lattice="16.290000149 0.0 0.0 0.0 16.290000149 0.0 0.0 0.0 29.1751946751" Properties=species:S:1:pos:R:3:initial_magmoms:R:1 pbc="T T T"
Si      -1.45435655      -1.38328165       1.22074850       0.00000000
Si       1.34299648      -1.32773275      -1.40784902       0.00000000
Si      -1.34133490       1.35930277      -1.38024928       0.00000000
Si       1.43607754       1.36756180       1.28741382       0.00000000
Si      -0.03544704      -2.61081461       2.59644645       0.00000000
Si      -0.14577921       2.65012238       2.56368271       0.00000000
Si      -2.79575499      -0.08260659       2.64082192       0.00000000
Si       2.76576510       2.68933241      -0.06756975       0.00000000
Si      -2.71995475      -0.00024435      -2.73841295       0.00000000
Si      -0.00400734       2.70599708      -2.75305890       0.00000000
