10
Lattice="16.290000149 0.0 0.0 0.0 16.290000149 0.0 0.0 0.0 29.1751946751" Properties=species:S:1:pos:R:3:initial_magmoms:R:1 pbc="T T T"
Si       1.37054287      -1.34591239      -1.33876216       0.00000000
Si       1.37888335       1.33529131       1.34442215       0.00000000
Si      -1.35031069      -1.36456444       1.35615057       0.00000000
Si      -1.34631964       1.35870004      -1.36901684       0.00000000
Si       0.00040725       2.70154991       2.65596385       0.00000000
Si      -0.01536147      -2.69625566      -2.66328682       0.00000000
Si      -2.72126081      -0.00788436       2.68913604       0.00000000
Si       2.74102059       0.01221750      -2.67676576       0.00000000
Si      -2.69356781       0.00206883      -2.73149843       0.00000000
Si       2.73481410       2.69094512      -0.01321636       0.00000000
