10
Lattice="16.290000149 0.0 0.0 0.0 16.290000149 0.0 0.0 0.0 29.1751946751" Properties=species:S:1:pos:R:3:initial_magmoms:R:1 pbc="T T T"
Si      -1.39605301       1.28291896      -1.35906809       0.00000000
Si       1.43806492      -1.37112931      -1.23241857       0.00000000
Si      -1.37292121      -1.32015790       1.35755098       0.00000000
Si       0.87840568       1.88814134       1.06950429       0.00000000
Si      -2.43146171       0.14299362       2.83708346       0.00000000
Si       0.05512536      -2.72150516      -2.57316464       0.00000000
Si      -2.57916314       2.73460232       0.05330308       0.00000000
Si      -0.01106091       2.61664643      -2.70025179       0.00000000
Si       2.78093109      -0.03912858      -2.60458633       0.00000000
Si      -2.74589130      -0.05981688      -2.67256453       0.00000000
