10
Lattice="16.290000149 0.0 0.0 0.0 16.290000149 0.0 0.0 0.0 29.1751946751" Properties=species:S:1:pos:R:3:initial_magmoms:R:1 pbc="T T T"
Si      -1.43013821       1.21209004      -1.38809741       0.00000000
Si       1.14080500      -1.41406975      -1.47830711       0.00000000
Si      -1.48823975      -1.20269071       1.37776939       0.00000000
Si       1.50487021       1.34526079       1.29634142       0.00000000
H        0.00133578      -2.75491596       0.60663982       0.00000000
H       -2.61670182      -0.22514409       1.66155651       0.00000000
H        2.05322420      -2.31689414      -0.68692996       0.00000000
Si      -0.19551258      -1.05614587       3.40066069       0.00000000
Si      -0.06765237       2.63956646      -2.69485438       0.00000000
Si      -2.86889709       2.45719991      -0.02252325       0.00000000
