10
Lattice="16.290000149 0.0 0.0 0.0 16.290000149 0.0 0.0 0.0 29.1751946751" Properties=species:S:1:pos:R:3:initial_magmoms:R:1 pbc="T T T"
Si      -0.22494861       2.13271940       0.91400050       0.00000000
Si      -1.81540649      -0.75307042      -1.38197062       0.00000000
Si       0.34207371      -1.94836547       1.37426837       0.00000000
Si       2.12229380       0.59061025      -1.00114681       0.00000000
H        2.20289672      -0.22823919       1.57484783       0.00000000
H       -1.34775316       2.18292518       1.92853872       0.00000000
H        2.85246048      -0.65303353       1.61566393       0.00000000
Si       1.95154202      -2.73606843      -0.14923112       0.00000000
H       -1.05756310      -1.11764062       3.00317784       0.00000000
H        1.05762826      -1.86483035       2.70033932       0.00000000
