10
Lattice="16.290000149 0.0 0.0 0.0 16.290000149 0.0 0.0 0.0 29.1751946751" Properties=species:S:1:pos:R:3:initial_magmoms:R:1 pbc="T T T"
Si      -0.51814907      -0.90723898      -2.09434135       0.00000000
Si       2.05749218       1.00698265       0.72430338       0.00000000
Si      -1.41258736       1.95076010       0.00303422       0.00000000
Si      -0.68092364      -1.76503781       1.50596520       0.00000000
H        1.45189513       1.56880846      -2.38043331       0.00000000
Si      -1.94307122      -0.33617673       2.83247640       0.00000000
H        2.85400803      -0.45387198      -1.91981534       0.00000000
Si       0.25567155       1.20762658      -3.27223148       0.00000000
Si       1.05116113       2.24837840       2.56689198       0.00000000
Si      -3.08278479       1.16581015       1.44948202       0.00000000
