10
Lattice="16.290000149 0.0 0.0 0.0 16.290000149 0.0 0.0 0.0 29.1751946751" Properties=species:S:1:pos:R:3:initial_magmoms:R:1 pbc="T T T"
H       -0.64514917      -0.83075743       1.07443489       0.00000000
Si       1.23808888      -1.36459702      -1.41814786       0.00000000
Si      -1.57757248       1.08708058      -1.32362023       0.00000000
Si       1.27532782       1.46302120       1.30319760       0.00000000
H       -2.08743320      -1.73747513       0.52710824       0.00000000
Si      -3.17874918       1.01452492       0.46598621       0.00000000
H       -1.28026369      -2.48712464       2.17874519       0.00000000
Si       2.50963742      -0.03414384       2.65678075       0.00000000
Si      -0.28294101       2.68048694      -2.59869294       0.00000000
Si       2.55922418      -2.74027125      -0.08303260       0.00000000
