10
Lattice="16.290000149 0.0 0.0 0.0 16.290000149 0.0 0.0 0.0 29.1751946751" Properties=species:S:1:pos:R:3:initial_magmoms:R:1 pbc="T T T"
H        1.28808289       0.03588687       0.80882392       0.00000000
Si      -1.35615229      -1.39364535       1.32895929       0.00000000
Si       0.59098492      -1.50996410      -1.77230555       0.00000000
Si      -0.79151156       2.25934157       0.20355533       0.00000000
Si       0.52587378       1.98340526      -1.71030826       0.00000000
Si       0.48697326      -2.56570760       2.25789749       0.00000000
Si       2.73737163       1.91666513      -0.89801249       0.00000000
H       -3.06165666       1.00356175      -1.51390085       0.00000000
Si       3.59461659      -0.16286742      -0.11182852       0.00000000
Si       2.66527208      -2.23671150      -0.93354788       0.00000000
