10
Lattice="16.290000149 0.0 0.0 0.0 16.290000149 0.0 0.0 0.0 29.1751946751" Properties=species:S:1:pos:R:3:initial_magmoms:R:1 pbc="T T T"
Si       1.38919004      -1.34934958       1.33003877       0.00000000
Si       1.37535983       1.34830702      -1.35081151       0.00000000
Si      -1.31450822      -1.36630747      -1.39431173       0.00000000
Si      -1.36916311       1.34042266       1.38039516       0.00000000
Si      -2.66210042      -2.71994132      -0.03652734       0.00000000
Si       0.02866063      -2.69785208       2.68516822       0.00000000
Si      -2.70147335       2.70641900       0.00793565       0.00000000
Si       0.02920797       2.70899607      -2.70637858       0.00000000
Si      -2.68295162      -0.00974142      -2.73546625       0.00000000
Si       2.70703476      -2.71197551      -0.06132626       0.00000000
