10
Lattice="16.290000149 0.0 0.0 0.0 16.290000149 0.0 0.0 0.0 29.1751946751" Properties=species:S:1:pos:R:3:initial_magmoms:R:1 pbc="T T T"
Si       1.38645820      -1.35013150      -1.35399161       0.00000000
Si      -1.35573526      -1.38044719       1.35469181       0.00000000
Si       1.40880808       1.36321237       1.31947735       0.00000000
Si      -1.33159348       1.31533606      -1.44315100       0.00000000
Si      -2.69236235      -2.66975183      -0.07734344       0.00000000
Si       2.69930189      -0.05064561       2.68035431       0.00000000
H       -1.11211831       2.94324465       2.13947538       0.00000000
Si       0.07366338       2.43273233       2.93925499       0.00000000
Si       2.72736956       2.69009804      -0.12230242       0.00000000
Si       0.04153950      -2.67687056      -2.76146135       0.00000000
