10
Lattice="16.290000149 0.0 0.0 0.0 16.290000149 0.0 0.0 0.0 29.1751946751" Properties=species:S:1:pos:R:3:initial_magmoms:R:1 pbc="T T T"
Si      -1.27869496       1.37238201      -1.38815868       0.00000000
Si       1.30155472       1.32724894       1.42507114       0.00000000
Si      -1.41245053      -1.39080763       1.25538820       0.00000000
Si       1.32914998      -1.31445640      -1.41959495       0.00000000
Si       2.64736937       2.65764836       0.07837333       0.00000000
Si      -0.04624731      -2.73825129       2.62770184       0.00000000
Si       2.65851173      -2.71011845      -0.05057812       0.00000000
Si      -0.09801693      -2.67379175      -2.69878282       0.00000000
Si      -2.71086714       2.68022630      -0.03671115       0.00000000
Si      -2.69293283      -0.04512330       2.71193062       0.00000000
