10
Lattice="16.290000149 0.0 0.0 0.0 16.290000149 0.0 0.0 0.0 29.1751946751" Properties=species:S:1:pos:R:3:initial_magmoms:R:1 pbc="T T T"
Si      -1.36052941      -1.34850250       1.35512944       0.00000000
Si      -1.38919004       1.34934958      -1.33003877       0.00000000
Si       1.31784472      -1.36262593      -1.39136503       0.00000000
Si       1.36969579       1.36133902       1.35238697       0.00000000
Si      -0.01383021       2.69765660      -2.68085029       0.00000000
Si       0.01011609      -2.69397506       2.70903353       0.00000000
Si       2.68553684      -2.71942004      -0.06368945       0.00000000
Si       2.68625360      -0.01863576      -2.73397832       0.00000000
Si      -2.69814244       0.01591533       2.72855173       0.00000000
Si      -2.70369826      -0.01695789      -2.72435050       0.00000000
