10
Lattice="16.290000149 0.0 0.0 0.0 16.290000149 0.0 0.0 0.0 29.1751946751" Properties=species:S:1:pos:R:3:initial_magmoms:R:1 pbc="T T T"
Si       1.30728880       1.29111283      -1.49464522       0.00000000
Si       1.26413659      -1.63836676       1.15778843       0.00000000
Si      -1.00123228       1.76158433       1.27014210       0.00000000
Si      -1.29683062      -1.67238029      -1.17290118       0.00000000
H        0.23115510      -2.74567953       1.37391827       0.00000000
H       -3.05289264      -1.03609288       0.35646253       0.00000000
H       -2.48261231      -1.16186797      -1.97268079       0.00000000
H       -0.29051586      -1.20392875       3.19109527       0.00000000
H       -1.84749779       0.49449924      -3.07699108       0.00000000
Si      -2.52120332       2.76527640      -0.23468527       0.00000000
