10
Lattice="16.290000149 0.0 0.0 0.0 16.290000149 0.0 0.0 0.0 29.1751946751" Properties=species:S:1:pos:R:3:initial_magmoms:R:1 pbc="T T T"
Si      -1.42140025       1.36923967      -1.25567120       0.00000000
Si      -1.29847591      -1.24369264       1.49718347       0.00000000
Si       1.18311013      -1.45168336      -1.41237117       0.00000000
Si       1.85575682       0.93028933       1.10740286       0.00000000
Si       3.45756882      -0.84646099       1.01620121       0.00000000
Si      -0.04267980       2.69053787      -2.61666486       0.00000000
Si       2.57916314      -2.73460232      -0.05330308       0.00000000
Si       2.56810223      -0.11795589      -2.75355487       0.00000000
Si       0.14770143      -2.59160870       2.78378038       0.00000000
Si      -2.77609296      -0.01316232      -2.60575334       0.00000000
