10
Lattice="16.290000149 0.0 0.0 0.0 16.290000149 0.0 0.0 0.0 29.1751946751" Properties=species:S:1:pos:R:3:initial_magmoms:R:1 pbc="T T T"
Si      -1.30561093       1.42943122       1.29879097       0.00000000
Si       1.26464158       1.48442626      -1.32297838       0.00000000
Si       1.45367074      -1.41525892       1.21561366       0.00000000
Si      -1.37758015      -1.02745918      -1.63296482       0.00000000
Si       0.33697494      -1.46777788      -3.15999451       0.00000000
Si      -0.42771024       2.41424318      -2.62947277       0.00000000
Si       2.23280516       0.03591945      -2.84271427       0.00000000
Si      -2.22358502       0.81906121      -2.75241704       0.00000000
Si       2.41059422      -2.68263722      -0.54061636       0.00000000
Si      -2.60491763      -0.05515794       2.57300710       0.00000000
