10
Lattice="16.290000149 0.0 0.0 0.0 16.290000149 0.0 0.0 0.0 29.1751946751" Properties=species:S:1:pos:R:3:initial_magmoms:R:1 pbc="T T T"
Si       1.32045112       1.34117200       1.39414251       0.00000000
Si      -1.35927182       1.33915204      -1.38056729       0.00000000
Si       1.41864724      -1.38212506      -1.28421621       0.00000000
Si      -1.37421301      -1.36089919       1.36149547       0.00000000
Si       0.03124422      -2.65704563      -2.66217700       0.00000000
Si       2.67623525       2.65574243      -0.00505023       0.00000000
Si       0.12875616       2.53905716      -2.81470025       0.00000000
Si       2.62189181      -2.77850388       0.15769776       0.00000000
Si      -2.86547619      -0.04549797      -2.54911582       0.00000000
Si       2.67318902      -0.02578707       2.75067236       0.00000000
