10
Lattice="16.290000149 0.0 0.0 0.0 16.290000149 0.0 0.0 0.0 29.1751946751" Properties=species:S:1:pos:R:3:initial_magmoms:R:1 pbc="T T T"
Si       1.44114373      -0.28859364      -0.44086637       0.00000000
Si      -1.98814565       0.08329077       1.05675473       0.00000000
Si      -1.22548042       1.95615209      -0.22278179       0.00000000
Si       0.65324530       2.66449016       1.05124061       0.00000000
Si       1.08232390      -0.05385474      -2.80087704       0.00000000
Si      -0.59535064       1.62377092      -2.55175005       0.00000000
Si       1.88186969      -2.42333300       0.44918130       0.00000000
Si      -0.96544315      -1.25240779       2.67615308       0.00000000
Si       2.66532095       1.29969766       0.97112553       0.00000000
H        1.62658909       2.40751541      -1.42710465       0.00000000
