10
Lattice="16.290000149 0.0 0.0 0.0 16.290000149 0.0 0.0 0.0 29.1751946751" Properties=species:S:1:pos:R:3:initial_magmoms:R:1 pbc="T T T"
Si       1.83153359       1.02143188      -0.94437479       0.00000000
Si       1.40657635      -1.36462960       1.25271576       0.00000000
Si      -1.32061402       1.48856223       1.20785889       0.00000000
Si      -1.30438918      -1.18519525      -1.55144524       0.00000000
Si       0.99738784       2.26574028      -2.65757724       0.00000000
Si      -2.67037085       0.09298332       2.51783972       0.00000000
Si      -2.62604576      -2.58874166      -0.21023354       0.00000000
Si       0.05087367      -2.70513371       2.56802106       0.00000000
Si       2.74418085      -2.51872724      -0.30472032       0.00000000
Si       2.82867708       0.09501957       2.47757795       0.00000000
