10
Lattice="16.290000149 0.0 0.0 0.0 16.290000149 0.0 0.0 0.0 29.1751946751" Properties=species:S:1:pos:R:3:initial_magmoms:R:1 pbc="T T T"
Si      -1.34817670      -1.36166482      -1.35040306       0.00000000
Si       1.34325712      -1.38249973       1.34395534       0.00000000
Si      -1.38836413       1.35128809       1.33289794       0.00000000
Si       1.34840476       1.34763913      -1.37806115       0.00000000
Si       2.71057457      -0.02368566       2.67256453       0.00000000
Si      -0.03712491       2.73759968       2.65482601       0.00000000
Si      -2.69151690      -0.00366525      -2.71367238       0.00000000
Si       2.71391402       2.70311375      -0.03145086       0.00000000
Si       0.01068624      -2.71710686      -2.70454055       0.00000000
Si      -0.03140712      -2.71968068       2.70550333       0.00000000
