10
Lattice="16.290000149 0.0 0.0 0.0 16.290000149 0.0 0.0 0.0 29.1751946751" Properties=species:S:1:pos:R:3:initial_magmoms:R:1 pbc="T T T"
Si       1.30561093      -1.42943122      -1.29879097       0.00000000
Si       1.41330412       1.29435454       1.34519354       0.00000000
Si      -1.29930670      -1.48458916       1.27421612       0.00000000
Si      -1.27902565       1.49662747      -1.33747728       0.00000000
Si       2.57025251       0.05499504      -2.62176935       0.00000000
Si      -2.68389155      -0.11419290       2.62569283       0.00000000
Si      -2.63974565       0.14936301      -2.67565594       0.00000000
Si       0.03140712       2.65144187       2.66865914       0.00000000
Si      -0.07196922      -2.45689040      -2.93175580       0.00000000
Si      -2.72512154       2.68776857       0.02045444       0.00000000
