10
Lattice="16.290000149 0.0 0.0 0.0 16.290000149 0.0 0.0 0.0 29.1751946751" Properties=species:S:1:pos:R:3:initial_magmoms:R:1 pbc="T T T"
Si      -1.48664985       1.08002701       1.42366197       0.00000000
Si      -1.42197855      -1.43736445      -1.16592830       0.00000000
Si       1.56467895      -1.07274538       1.36609932       0.00000000
Si       1.31681031       1.48129858      -1.27314715       0.00000000
H       -2.51963134      -0.02728575       1.63979182       0.00000000
Si       1.99533768       0.74181403       2.85027064       0.00000000
Si      -0.31853629       0.92207917       3.44103916       0.00000000
Si       0.01678033      -2.68247432      -2.53150247       0.00000000
Si      -2.71247236      -0.02350647      -2.52680526       0.00000000
Si       2.81817817       0.15144813      -2.52458795       0.00000000
