10
Lattice="16.290000149 0.0 0.0 0.0 16.290000149 0.0 0.0 0.0 29.1751946751" Properties=species:S:1:pos:R:3:initial_magmoms:R:1 pbc="T T T"
Si       1.32968755       1.32177061      -1.35498357       0.00000000
Si       1.01647972      -0.79229674       1.96780853       0.00000000
Si      -1.43607754      -1.36756180      -1.28741382       0.00000000
Si      -1.58185675       1.28256058       1.27626889       0.00000000
Si      -0.78260419      -2.11975256       2.61150085       0.00000000
Si      -2.44832186      -0.49839255       2.52890587       0.00000000
Si       2.58971906       2.64314049       0.10809410       0.00000000
Si      -0.09078417       2.68275125      -2.65759766       0.00000000
Si      -0.09308106      -2.69529455      -2.69526283       0.00000000
Si       2.69650001      -0.04714326      -2.70220653       0.00000000
