10
Lattice="16.290000149 0.0 0.0 0.0 16.290000149 0.0 0.0 0.0 29.1751946751" Properties=species:S:1:pos:R:3:initial_magmoms:R:1 pbc="T T T"
Si      -2.04910283       0.61894833      -0.90241795       0.00000000
Si       1.03596256      -1.61776969      -1.32023591       0.00000000
Si      -0.53294364      -1.25886841       1.93058098       0.00000000
Si       1.51663159       1.84996409       0.07340479       0.00000000
Si       2.33101757      -0.17850175      -2.59469594       0.00000000
Si      -3.29561364      -1.16603169      -0.06815325       0.00000000
Si       2.55593360      -2.62146176       0.18459146       0.00000000
Si       0.78866407       3.17825071      -1.71760206       0.00000000
Si      -2.14387805       0.27371436       3.00627041       0.00000000
Si       0.88672987       2.92648875       2.11826501       0.00000000
