10
Lattice="16.290000149 0.0 0.0 0.0 16.290000149 0.0 0.0 0.0 29.1751946751" Properties=species:S:1:pos:R:3:initial_magmoms:R:1 pbc="T T T"
H        0.91241920      -0.90282439       0.79137716       0.00000000
Si       1.34785090       1.30225519      -1.39253204       0.00000000
Si      -1.14080500       1.41406975       1.47830711       0.00000000
Si      -1.29585322      -1.46758240      -1.29231525       0.00000000
H       -1.13946922      -1.34084620       2.08494694       0.00000000
Si      -2.57094321       2.62615979       0.09020970       0.00000000
Si      -0.48910725      -2.56092812       2.66314095       0.00000000
Si      -2.66362842      -0.14362893      -2.65468014       0.00000000
Si      -0.01065366       2.65535147      -2.69567129       0.00000000
Si       2.73517248       2.64901466      -0.09581134       0.00000000
