10
Lattice="16.290000149 0.0 0.0 0.0 16.290000149 0.0 0.0 0.0 29.1751946751" Properties=species:S:1:pos:R:3:initial_magmoms:R:1 pbc="T T T"
Si       0.96816358      -1.44850681      -1.51973589       0.00000000
Si      -1.69235183       0.92981692      -1.30649439       0.00000000
Si      -1.26464158      -1.48442626       1.32297838       0.00000000
Si       1.50503311       1.28550907       1.28295001       0.00000000
H       -1.16279650       1.18664506      -2.69351232       0.00000000
Si      -0.92766664      -2.95220415      -1.83701613       0.00000000
Si      -2.64222173      -2.51188544      -0.30998644       0.00000000
Si      -2.57025251      -0.05499504       2.62176935       0.00000000
Si       0.16470819       2.64290591       2.62575118       0.00000000
Si       2.53640189      -2.73017144      -0.39581987       0.00000000
