10
Lattice="16.290000149 0.0 0.0 0.0 16.290000149 0.0 0.0 0.0 29.1751946751" Properties=species:S:1:pos:R:3:initial_magmoms:R:1 pbc="T T T"
Si       1.34262181       1.36107838       1.35361233       0.00000000
Si      -1.33643161       1.37547874      -1.35323305       0.00000000
Si       1.36536917      -1.35190711      -1.34932358       0.00000000
Si      -1.35281935      -1.34843734       1.37485187       0.00000000
Si      -2.69500133       0.01014867      -2.68473059       0.00000000
Si       2.67110390       0.00158013       2.71839876       0.00000000
Si      -0.00464265      -2.72085356      -2.67478185       0.00000000
Si      -2.68270238       2.72315045       0.01438337       0.00000000
Si       2.69350265      -2.71275743       0.02520737       0.00000000
Si       2.69288363       2.72591975      -0.01044472       0.00000000
