10
Lattice="16.290000149 0.0 0.0 0.0 16.290000149 0.0 0.0 0.0 29.1751946751" Properties=species:S:1:pos:R:3:initial_magmoms:R:1 pbc="T T T"
Si       1.36023130       1.36243045      -1.34378029       0.00000000
Si      -1.36550926      -1.35547462      -1.34661029       0.00000000
Si       1.35101116      -1.37617921       1.34223401       0.00000000
Si      -1.37474569       1.36487395       1.33199351       0.00000000
Si      -0.02401146       2.70027929      -2.69374572       0.00000000
Si       2.72927549      -0.01687644      -2.66602929       0.00000000
Si       0.00428427      -2.71902908      -2.68274668       0.00000000
Si       2.72844470      -0.03645702       2.67498607       0.00000000
Si      -0.02619432       2.72598491       2.68096699       0.00000000
Si      -2.71391402      -2.70311375       0.03145086       0.00000000
