10
Lattice="16.290000149 0.0 0.0 0.0 16.290000149 0.0 0.0 0.0 29.1751946751" Properties=species:S:1:pos:R:3:initial_magmoms:R:1 pbc="T T T"
Si      -1.35628912      -1.34959393      -1.35475016       0.00000000
Si      -1.34351776       1.33087672       1.38728051       0.00000000
Si       1.34063443       1.35314515      -1.38538412       0.00000000
Si       1.34574949      -1.37997478       1.35492522       0.00000000
Si       0.06838542      -2.71018361      -2.62500897       0.00000000
Si      -2.70648578       2.67015908       0.02293170       0.00000000
Si       2.70498385       2.68299560      -0.00618514       0.00000000
Si       2.69474558      -0.03585429      -2.71524784       0.00000000
Si      -2.69513165      -0.06041961       2.71481021       0.00000000
Si       2.69731777      -0.02704140       2.71658990       0.00000000
