10
Lattice="16.290000149 0.0 0.0 0.0 16.290000149 0.0 0.0 0.0 29.1751946751" Properties=species:S:1:pos:R:3:initial_magmoms:R:1 pbc="T T T"
Si      -1.19622358      -0.36118188      -0.89179818       0.00000000
H        1.40211289      -2.02268045       0.46061797       0.00000000
Si      -0.33938586       1.12598110      -2.51892796       0.00000000
Si       0.09127287       2.94054051      -1.03475663       0.00000000
Si      -1.97004420      -2.47604744       0.28609196       0.00000000
Si       2.00016767       1.17590995       2.19035692       0.00000000
Si      -1.45189513      -1.56880846       2.38043331       0.00000000
Si       0.60559705      -0.56182582       3.10473669       0.00000000
Si      -0.65265886      -2.75198376      -1.62777164       0.00000000
H        3.11813409       0.63768835      -0.73786985       0.00000000
