10
Lattice="16.290000149 0.0 0.0 0.0 16.290000149 0.0 0.0 0.0 29.1751946751" Properties=species:S:1:pos:R:3:initial_magmoms:R:1 pbc="T T T"
H       -1.03983958       1.11941134       0.01703831       0.00000000
Si      -0.83984725      -1.93007017       1.01631791       0.00000000
Si       0.27334620      -0.74635731      -2.20395256       0.00000000
Si       1.86840437       0.89532936       1.12677519       0.00000000
Si       2.54900547      -1.22891598      -2.09151136       0.00000000
Si      -2.40339404      -2.71241372      -0.57548072       0.00000000
Si       0.93460618       1.71212951       3.11941181       0.00000000
H        0.16290000       3.29253646      -1.71608495       0.00000000
Si      -2.88582240       0.53090577       2.39236596       0.00000000
Si       0.93499714      -3.08512892       2.04363486       0.00000000
