10
Lattice="16.290000149 0.0 0.0 0.0 16.290000149 0.0 0.0 0.0 29.1751946751" Properties=species:S:1:pos:R:3:initial_magmoms:R:1 pbc="T T T"
Si      -1.34581465      -1.33039943       1.34669781       0.00000000
Si       1.31572702      -1.32328232      -1.39996588       0.00000000
Si      -1.20324457       1.39637881      -1.44191398       0.00000000
Si       1.42882849       1.40341609       1.24265907       0.00000000
Si       2.30400875       0.46297809      -2.55406073       0.00000000
Si       0.67090366       2.19828665      -2.63771243       0.00000000
Si      -2.64736937      -2.65764836      -0.07837333       0.00000000
Si      -2.70179426       0.06493194       2.63580379       0.00000000
Si       2.69847110      -2.64755026      -0.03432462       0.00000000
Si       0.05129721       2.75271681       2.59297460       0.00000000
