10
Lattice="16.290000149 0.0 0.0 0.0 16.290000149 0.0 0.0 0.0 29.1751946751" Properties=species:S:1:pos:R:3:initial_magmoms:R:1 pbc="T T T"
Si       1.32061402      -1.48856223      -1.20785889       0.00000000
Si       1.36122499       1.28234399       1.40940989       0.00000000
Si      -1.34975683      -1.39557891       1.30998083       0.00000000
Si      -1.38274408       1.32426793      -1.36564126       0.00000000
Si       2.69434973       2.62210528       0.07993420       0.00000000
Si      -2.69847110       2.64755026       0.03432462       0.00000000
Si      -2.67362885      -0.04350890       2.69422712       0.00000000
Si       0.03103245       2.70194257       2.69551082       0.00000000
Si       0.03546333      -2.75230786       2.64909309       0.00000000
Si      -2.68732874      -2.72021656      -0.09462683       0.00000000
