10
Lattice="16.290000149 0.0 0.0 0.0 16.290000149 0.0 0.0 0.0 29.1751946751" Properties=species:S:1:pos:R:3:initial_magmoms:R:1 pbc="T T T"
H        1.22548042      -1.95615209       0.22278179       0.00000000
H       -1.98607682      -0.61778197      -1.08447116       0.00000000
Si       1.87872572       0.70833808       1.27402240       0.00000000
Si      -0.76266523      -1.87286132       1.27953651       0.00000000
Si       0.63012979      -0.33238116      -2.32896827       0.00000000
Si      -1.78292423       1.54551376       0.62913390       0.00000000
H       -2.63564057      -0.19298763      -1.12528726       0.00000000
H        2.33039855       1.99311410       0.61285414       0.00000000
H        2.85206952       0.45136332      -1.20432286       0.00000000
H       -0.43197822       2.16094997      -2.22177860       0.00000000
