10
Lattice="16.290000149 0.0 0.0 0.0 16.290000149 0.0 0.0 0.0 29.1751946751" Properties=species:S:1:pos:R:3:initial_magmoms:R:1 pbc="T T T"
Si       0.08226450      -0.69328612      -2.22973759       0.00000000
Si      -0.98828173      -1.78626042       1.15409485       0.00000000
Si       1.83881522       0.88169626       1.18654641       0.00000000
Si      -1.63310509       1.73530856      -0.08365170       0.00000000
H        2.53477289      -0.94447792      -0.73809742       0.00000000
Si      -2.30400875      -0.46297809       2.55406073       0.00000000
Si       0.55211698       2.33059403       2.51534524       0.00000000
Si      -2.12087657      -0.31076433      -3.03491462       0.00000000
Si      -2.07205544       1.98316091      -2.36691936       0.00000000
Si       2.01978083       0.33646995      -3.13107606       0.00000000
