10
Lattice="16.290000149 0.0 0.0 0.0 16.290000149 0.0 0.0 0.0 29.1751946751" Properties=species:S:1:pos:R:3:initial_magmoms:R:1 pbc="T T T"
Si       1.57757248      -1.08708058       1.32362023       0.00000000
Si      -1.23198013      -1.13780764      -1.62485412       0.00000000
Si      -1.60117669      -0.07255566       1.78960644       0.00000000
Si       1.29463147       1.59340636      -1.27507271       0.00000000
H        0.93242332      -1.91783801       2.39805513       0.00000000
H       -0.50986071      -2.82455571       1.85072847       0.00000000
Si      -1.71356141       2.23323033       2.02379573       0.00000000
Si      -2.64730421      -2.46485621      -0.38689226       0.00000000
Si       2.81566137      -2.45167760      -0.09452763       0.00000000
Si       0.12955437      -2.50792697      -2.88694386       0.00000000
