10
Lattice="16.290000149 0.0 0.0 0.0 16.290000149 0.0 0.0 0.0 29.1751946751" Properties=species:S:1:pos:R:3:initial_magmoms:R:1 pbc="T T T"
Si       1.34032492      -1.35739684      -1.34280117       0.00000000
Si       1.30438918       1.18519525       1.55144524       0.00000000
Si      -1.32165658      -1.40354641       1.34121171       0.00000000
Si      -1.21582045       1.41447700      -1.44943651       0.00000000
Si      -0.16470819      -2.64290591      -2.62575118       0.00000000
Si       0.40102722       2.89988555      -2.39001561       0.00000000
Si      -2.70355358      -0.04645908       2.66467731       0.00000000
Si      -2.69718419       2.71438350      -0.11163713       0.00000000
Si      -2.73496071      -2.69790095      -0.00398183       0.00000000
Si      -0.01622484       2.67375748       2.75930414       0.00000000
