10
Lattice="16.290000149 0.0 0.0 0.0 16.290000149 0.0 0.0 0.0 29.1751946751" Properties=species:S:1:pos:R:3:initial_magmoms:R:1 pbc="T T T"
Si       1.29181167       1.40545234       1.31973993       0.00000000
Si      -1.32113530       1.37567422      -1.33511526       0.00000000
Si       1.40359854      -1.31826826      -1.31457592       0.00000000
Si      -1.31856148      -1.32688567       1.44177977       0.00000000
Si      -2.55922418       2.74027125       0.08303260       0.00000000
Si       0.01221750      -2.69312798      -2.62675948       0.00000000
Si       2.77317705      -2.55837710       0.13032559       0.00000000
Si      -2.70998813       0.01728369      -2.66567919       0.00000000
Si       2.73447201       0.07859925      -2.65893972       0.00000000
Si       2.71072118       0.17791938       2.69543789       0.00000000
