10
Lattice="16.290000149 0.0 0.0 0.0 16.290000149 0.0 0.0 0.0 29.1751946751" Properties=species:S:1:pos:R:3:initial_magmoms:R:1 pbc="T T T"
Si       1.33208218       1.33297813      -1.39632482       0.00000000
Si      -1.19775484       1.47170377       1.43142258       0.00000000
Si       1.47181780      -1.20927187       1.45493778       0.00000000
Si      -1.56664189      -1.11982348      -1.46862095       0.00000000
H        1.82679320      -3.01669626      -0.79426550       0.00000000
Si      -0.17288577       2.63974565      -2.69123666       0.00000000
Si      -2.52517808       0.08990451       2.80671791       0.00000000
Si       2.92685691       2.46378107      -0.05957575       0.00000000
Si      -2.59801067       2.89585704       0.21014893       0.00000000
H        2.02874033       3.20943954       0.91826008       0.00000000
