10
Lattice="16.290000149 0.0 0.0 0.0 16.290000149 0.0 0.0 0.0 29.1751946751" Properties=species:S:1:pos:R:3:initial_magmoms:R:1 pbc="T T T"
Si       1.34286616       1.33200073      -1.37216776       0.00000000
Si      -1.43806492       1.37112931       1.23241857       0.00000000
Si       1.34247520      -1.34587981       1.38386701       0.00000000
Si      -1.38293956      -1.35037585      -1.34074607       0.00000000
Si      -0.15734511      -2.70915734       2.54445625       0.00000000
Si       2.70324407       2.63920808       0.01805945       0.00000000
Si      -0.01303200      -2.73768113      -2.65164592       0.00000000
Si      -2.81098614       0.05097141       2.58996956       0.00000000
Si       2.71625978      -0.02777445      -2.69228696       0.00000000
Si      -0.01470987       2.66579336      -2.74976210       0.00000000
