10
Lattice="16.290000149 0.0 0.0 0.0 16.290000149 0.0 0.0 0.0 29.1751946751" Properties=species:S:1:pos:R:3:initial_magmoms:R:1 pbc="T T T"
Si       1.35938422      -1.35768518      -1.33981247       0.00000000
Si       1.37342620       1.34768800       1.34287586       0.00000000
Si      -1.34426710      -1.35533616       1.36574921       0.00000000
Si      -1.33009480       1.36976095      -1.37263456       0.00000000
Si       0.00247608       2.70436808       2.67586133       0.00000000
Si       2.70837542       0.01599678      -2.67656153       0.00000000
Si       0.04598667      -2.70374906       2.69858881       0.00000000
Si       0.00371412      -2.72945469      -2.67784524       0.00000000
Si      -2.68895774       2.72520299      -0.01849707       0.00000000
Si      -2.70097976      -2.71806797       0.01528780       0.00000000
