10
Lattice="16.290000149 0.0 0.0 0.0 16.290000149 0.0 0.0 0.0 29.1751946751" Properties=species:S:1:pos:R:3:initial_magmoms:R:1 pbc="T T T"
Si       1.38468259      -1.31457043      -1.35877634       0.00000000
Si       1.37046142       1.36127386       1.32779228       0.00000000
Si      -1.35614251       1.36990756      -1.33908309       0.00000000
Si      -1.35593074      -1.35565381       1.35763851       0.00000000
Si       0.00620649      -2.67872762      -2.66354940       0.00000000
Si      -0.00819387       2.70868493       2.64904933       0.00000000
Si       0.02365308       2.68763825      -2.70264416       0.00000000
Si       2.71441901      -2.68081274       0.01700914       0.00000000
Si      -2.73440685       0.01060479       2.66918021       0.00000000
Si      -2.73481410      -2.69094512       0.01321636       0.00000000
