10
Lattice="16.290000149 0.0 0.0 0.0 16.290000149 0.0 0.0 0.0 29.1751946751" Properties=species:S:1:pos:R:3:initial_magmoms:R:1 pbc="T T T"
Si      -1.37095012       1.35668008       1.33298547       0.00000000
Si      -1.37342620      -1.34768800      -1.34287586       0.00000000
Si       1.35031069       1.36456444      -1.35615057       0.00000000
Si       1.37041255      -1.34405533       1.36259829       0.00000000
Si      -0.00363267       2.71549415       2.66159466       0.00000000
Si      -0.01404198      -2.70537318      -2.68268833       0.00000000
Si       2.71924085      -2.69454521      -0.01061977       0.00000000
Si       2.72085356       0.01865205      -2.69491273       0.00000000
Si      -2.70352100       0.02207295      -2.71551042       0.00000000
Si      -2.71769330      -2.70302416       0.02287335       0.00000000
