10
Lattice="16.290000149 0.0 0.0 0.0 16.290000149 0.0 0.0 0.0 29.1751946751" Properties=species:S:1:pos:R:3:initial_magmoms:R:1 pbc="T T T"
Si       0.07177374       1.07241958       1.06241471       0.00000000
H        1.16634120       1.81084529      -1.93551159       0.00000000
Si      -2.45519624      -1.40804245      -1.02883407       0.00000000
H       -1.20273958      -2.17312512       1.73312326       0.00000000
Si      -1.54857628       0.39047130       2.62404618       0.00000000
Si      -0.45877527      -2.28891607      -1.99946362       0.00000000
Si       2.27014510       1.25577982       1.71745618       0.00000000
Si      -0.36895221       3.20715894       0.17236705       0.00000000
Si      -3.08509797      -0.33151779       1.01602615       0.00000000
Si       2.29480327       0.83329867      -2.21929871       0.00000000
