10
Lattice="16.290000149 0.0 0.0 0.0 16.290000149 0.0 0.0 0.0 29.1751946751" Properties=species:S:1:pos:R:3:initial_magmoms:R:1 pbc="T T T"
Si       0.52048179      -0.68167135       2.23047281       0.00000000
Si      -2.01207566       1.36479250       0.08011508       0.00000000
Si       1.16236319       2.05718267      -0.59698283       0.00000000
Si      -1.22417722      -1.58829130      -1.41199190       0.00000000
Si       2.18874071      -1.42480486      -1.04479290       0.00000000
H       -1.03873186       1.10781775      -2.39823018       0.00000000
H       -2.66532095      -1.29969766      -0.97112553       0.00000000
H       -1.56040282       2.64956852      -0.58105318       0.00000000
Si      -0.00575037       2.21513051      -2.61436002       0.00000000
H        3.38496429      -1.06362298      -0.15299472       0.00000000
