10
Lattice="16.290000149 0.0 0.0 0.0 16.290000149 0.0 0.0 0.0 29.1751946751" Properties=species:S:1:pos:R:3:initial_magmoms:R:1 pbc="T T T"
Si      -1.36368478      -1.36148563       1.32968867       0.00000000
Si       1.33602436      -1.44138808      -1.28893093       0.00000000
Si      -1.38522016       1.35672895      -1.33911226       0.00000000
Si       1.38034945       1.34439742       1.35661738       0.00000000
Si       2.69172704      -0.10088397      -2.60423623       0.00000000
Si       0.02055798      -2.69933447       2.67965411       0.00000000
Si      -2.71370225       0.00389331       2.68513904       0.00000000
Si      -0.03546333       2.75230786      -2.64909309       0.00000000
Si      -2.69878061      -2.71285517      -0.06424378       0.00000000
Si      -2.70909218       2.70879896       0.04513403       0.00000000
