10
Lattice="16.290000149 0.0 0.0 0.0 16.290000149 0.0 0.0 0.0 29.1751946751" Properties=species:S:1:pos:R:3:initial_magmoms:R:1 pbc="T T T"
Si       1.36844340      -1.35656605       1.34115452       0.00000000
Si       1.39786088       1.33494922      -1.33482351       0.00000000
Si      -1.35035956       1.36124128       1.35985582       0.00000000
Si      -1.35777151      -1.34803009      -1.36744137       0.00000000
Si       0.08094501       2.76958673      -2.61144250       0.00000000
Si       2.69841898      -2.70599708      -0.05032721       0.00000000
Si       0.02085120      -2.71019990       2.69893891       0.00000000
Si      -2.70980894      -0.00265527       2.70188560       0.00000000
Si       2.68295162       0.00974142       2.73546625       0.00000000
Si      -2.71073747       2.71396289       0.00714792       0.00000000
