10
Lattice="16.290000149 0.0 0.0 0.0 16.290000149 0.0 0.0 0.0 29.1751946751" Properties=species:S:1:pos:R:3:initial_magmoms:R:1 pbc="T T T"
Si      -1.52834410      -1.32048370      -1.19098980       0.00000000
Si      -1.41117013       1.17288001       1.47428094       0.00000000
Si       1.38481291      -1.31830084       1.43375659       0.00000000
Si       0.76712869       1.50187611      -1.71716443       0.00000000
H        1.22137534      -2.09142425      -2.23438228       0.00000000
Si      -1.30715848       2.22862352      -2.55592210       0.00000000
Si      -0.14480181      -2.66849750      -2.50463211       0.00000000
Si      -2.57369459       0.22069692      -2.67294381       0.00000000
Si       0.03492576       2.61506956       2.74809911       0.00000000
H       -0.61006051       3.77447448       0.02520737       0.00000000
