10
Lattice="16.290000149 0.0 0.0 0.0 16.290000149 0.0 0.0 0.0 29.1751946751" Properties=species:S:1:pos:R:3:initial_magmoms:R:1 pbc="T T T"
Si       1.31256676       1.35283564      -1.39092741       0.00000000
Si      -1.38710980       1.47655819       1.21316295       0.00000000
Si       1.59651775      -1.30176649       1.21351305       0.00000000
Si      -1.50487021      -1.34526079      -1.29634142       0.00000000
Si      -1.70038280      -2.40140666       2.10431927       0.00000000
Si      -2.24394752      -0.01060479       2.84029273       0.00000000
Si       2.37110726      -0.11031588      -2.87045988       0.00000000
Si       3.47004696       0.15754059       1.36531159       0.00000000
Si       3.12797325       2.10590606      -0.00895678       0.00000000
H        2.07041015       0.98826544       2.99422105       0.00000000
