10
Lattice="16.290000149 0.0 0.0 0.0 16.290000149 0.0 0.0 0.0 29.1751946751" Properties=species:S:1:pos:R:3:initial_magmoms:R:1 pbc="T T T"
Si       1.35123922       1.38631159       1.32192807       0.00000000
Si      -1.33939313       1.35969373      -1.36172304       0.00000000
Si       1.38836413      -1.35128809      -1.33289794       0.00000000
Si      -1.35026182      -1.36484137       1.36405705       0.00000000
Si       2.66147651      -0.03911229       2.62025341       0.00000000
Si      -2.66624948       2.70876638       0.03474766       0.00000000
Si       0.04018743      -2.71295291      -2.68330100       0.00000000
Si      -2.69096141       0.00676035      -2.72338772       0.00000000
Si      -2.69288363      -2.72591975       0.01044472       0.00000000
Si       0.01941768       2.71065602      -2.72487566       0.00000000
