10
Lattice="16.290000149 0.0 0.0 0.0 16.290000149 0.0 0.0 0.0 29.1751946751" Properties=species:S:1:pos:R:3:initial_magmoms:R:1 pbc="T T T"
Si       1.35850456      -1.35309628       1.30313925       0.00000000
Si       1.37285605       1.25400421      -1.43025557       0.00000000
Si      -1.31040019      -1.43122312      -1.32166549       0.00000000
Si      -1.19780371       1.39828474       1.47912402       0.00000000
Si      -2.56738222       2.63839358       0.03422250       0.00000000
Si       2.72269433       2.59674005      -0.11675913       0.00000000
Si      -2.63888228      -0.07172487      -2.68645193       0.00000000
Si       2.74582614      -0.00633681       2.59985995       0.00000000
Si      -2.56028955      -0.02919168       2.78588099       0.00000000
Si       0.01065366      -2.65535147       2.69567129       0.00000000
