10
Lattice="16.290000149 0.0 0.0 0.0 16.290000149 0.0 0.0 0.0 29.1751946751" Properties=species:S:1:pos:R:3:initial_magmoms:R:1 pbc="T T T"
Si       2.07428717      -0.72674741       0.83875767       0.00000000
Si       0.78209920       0.57451735      -2.15382957       0.00000000
Si      -1.26653611      -2.00792660      -0.11702171       0.00000000
Si      -0.59098492       1.50996410       1.77230555       0.00000000
H       -1.37507475      -0.25891163      -2.70121457       0.00000000
H        0.69709798       1.54585097       2.58112947       0.00000000
H        0.13173723       1.79459927      -2.73202358       0.00000000
Si      -0.06511113       3.49336935       0.06199729       0.00000000
Si       1.30715848      -2.22862352       2.55592210       0.00000000
Si       3.13836627      -1.40123812      -1.22807147       0.00000000
