10
Lattice="16.28999089631971 0.0 0.0 0.0 16.28999089631971 0.0 0.0 0.0 34.397273925272025" Properties=species:S:1:pos:R:3:initial_magmoms:R:1 pbc="T T T"
Si       0.76598838      -1.82835702      -1.25636113       0.00000000
Si       1.44842535       1.11824334       1.51067206       0.00000000
Si      -1.12306518      -1.38150603       1.59552674       0.00000000
Si      -1.17628298       1.49322285      -1.49624785       0.00000000
Si      -1.30293122      -3.15990162      -1.38810276       0.00000000
Si      -2.70398735       2.53028060       0.00151348       0.00000000
Si       2.46153303      -2.76977241       0.14082252       0.00000000
Si      -2.85719174      -2.41707762       0.40423978       0.00000000
Si       3.23773524       1.96934697       0.09307908       0.00000000
Si       0.02643867       2.46904272       2.96895562       0.00000000
