10
Lattice="16.28999089631971 0.0 0.0 0.0 16.28999089631971 0.0 0.0 0.0 34.397273925272025" Properties=species:S:1:pos:R:3:initial_magmoms:R:1 pbc="T T T"
Si      -1.52770437       1.03705775       1.49776134       0.00000000
Si       1.17628298      -1.49322285       1.49624785       0.00000000
Si      -0.92293601      -1.35055503      -1.81676183       0.00000000
Si       0.32255666       2.34356315      -1.20655385       0.00000000
Si      -3.04247583      -1.45572327      -0.81428712       0.00000000
Si      -2.97923805       2.25524203      -0.00474683       0.00000000
Si      -1.81215729       2.45584360      -2.27256036       0.00000000
Si       1.94227136      -3.32157987       0.23988672       0.00000000
Si      -0.24838178       2.34565804       3.07408406       0.00000000
Si       2.62470833      -0.37497951       3.00691991       0.00000000
