10
Lattice="16.28999089631971 0.0 0.0 0.0 16.28999089631971 0.0 0.0 0.0 34.397273925272025" Properties=species:S:1:pos:R:3:initial_magmoms:R:1 pbc="T T T"
Si      -2.11953981      -0.10516824       1.00247471       0.00000000
Si      -0.15507591       0.69009327      -2.27582811       0.00000000
Si       0.33498267      -2.37413718      -0.18237445       0.00000000
Si       0.92293601       1.35055503       1.81676183       0.00000000
Si      -1.73253828      -0.82556091      -3.11931853       0.00000000
Si       2.60930777      -2.81113272      -0.57164861       0.00000000
Si       0.79628778      -3.30256944       1.92490692       0.00000000
Si       2.09921900      -0.14266782       3.31300969       0.00000000
Si      -0.88922127       3.80639863      -0.45579853       0.00000000
Si       1.24549267       3.69411818       0.61020798       0.00000000
