10
Lattice="16.28999089631971 0.0 0.0 0.0 16.28999089631971 0.0 0.0 0.0 34.397273925272025" Properties=species:S:1:pos:R:3:initial_magmoms:R:1 pbc="T T T"
Si       1.33105590      -1.24396371       1.50298972       0.00000000
Si       1.33600806       1.43271853      -1.32332376       0.00000000
Si      -0.89176347      -1.73510721      -1.40095845       0.00000000
Si      -1.37489229       1.45286926       1.48236511       0.00000000
Si       2.67807600      -2.56966020       0.10833084       0.00000000
Si      -2.68107336      -2.58621084       0.01663453       0.00000000
Si      -0.03515382      -2.59834689       2.86363313       0.00000000
Si       2.70321147       2.83724233       0.11146787       0.00000000
Si       2.67783165       0.11642463       2.86315157       0.00000000
Si      -2.61410517       2.94053722       0.12365483       0.00000000
