10
Lattice="16.28999089631971 0.0 0.0 0.0 16.28999089631971 0.0 0.0 0.0 34.397273925272025" Properties=species:S:1:pos:R:3:initial_magmoms:R:1 pbc="T T T"
Si      -1.96283097       0.81392170      -0.98482890       0.00000000
Si       1.00637991      -1.82337132      -1.40994505       0.00000000
Si      -0.13939353      -2.42755113       0.68213272       0.00000000
Si       0.81228456       1.24990727       2.04457510       0.00000000
Si      -0.34321401       1.85921842      -2.43584431       0.00000000
Si       1.37867157       3.02167283      -1.17831367       0.00000000
Si      -0.72115830      -2.01849294       2.84733913       0.00000000
Si       3.20492718       1.35347909      -0.80785483       0.00000000
Si       2.29469085      -2.73737064       0.38301386       0.00000000
Si       2.62197324      -0.56048026      -2.44389328       0.00000000
