10
Lattice="16.28999089631971 0.0 0.0 0.0 16.28999089631971 0.0 0.0 0.0 34.397273925272025" Properties=species:S:1:pos:R:3:initial_magmoms:R:1 pbc="T T T"
Si       1.34726445       0.05330088       1.96549573       0.00000000
Si      -0.45616887      -2.13349871      -1.04388905       0.00000000
Si       1.07727399       1.13490149      -1.84665308       0.00000000
Si      -2.00938779       1.35286169       0.16214884       0.00000000
Si      -2.79127521      -1.84093031      -1.01719675       0.00000000
Si      -3.38900418       0.42842048      -1.47674459       0.00000000
Si       0.13248657       1.22145026       3.63823609       0.00000000
Si      -1.45370331       3.52329242      -0.61172146       0.00000000
Si       0.71333910       3.53816519      -1.44496149       0.00000000
Si       2.97204534       1.74864353       1.81067351       0.00000000
