10
Lattice="16.28999089631971 0.0 0.0 0.0 16.28999089631971 0.0 0.0 0.0 34.397273925272025" Properties=species:S:1:pos:R:3:initial_magmoms:R:1 pbc="T T T"
Si      -2.19330189      -0.81647109       0.12324550       0.00000000
Si      -0.23289813       2.27268306      -0.57536352       0.00000000
Si       1.21477788      -1.16814938      -1.67274037       0.00000000
Si       0.54921735       0.68470128       2.26096848       0.00000000
Si       2.83955877       0.52719327      -1.82756258       0.00000000
Si      -1.61775990       1.43677800       2.82236670       0.00000000
Si       1.91534562       2.69202024      -1.40358155       0.00000000
Si      -3.36671946       0.44769807      -1.43735969       0.00000000
Si      -2.87323020      -0.45274797       2.31600414       0.00000000
Si      -1.40903613       3.19311693       1.28659635       0.00000000
