10
Lattice="16.28999089631971 0.0 0.0 0.0 16.28999089631971 0.0 0.0 0.0 34.397273925272025" Properties=species:S:1:pos:R:3:initial_magmoms:R:1 pbc="T T T"
Si      -1.37961639      -0.92444121      -1.63889343       0.00000000
Si       0.55568448       2.17043073      -0.77387030       0.00000000
Si      -1.22484510       0.31628664       2.03872756       0.00000000
Si       2.00938779      -1.35286169      -0.16214884       0.00000000
Si      -0.78188742      -3.19379201      -1.17934559       0.00000000
Si       0.76092219       3.27262842       1.20603789       0.00000000
Si      -1.32204753       2.70174537       1.98933305       0.00000000
Si      -0.99209358       0.72037638      -3.47508973       0.00000000
Si       3.08666178      -0.21796020      -2.00880192       0.00000000
Si      -0.05142753      -0.94788252       3.59933276       0.00000000
