10
Lattice="16.28999089631971 0.0 0.0 0.0 16.28999089631971 0.0 0.0 0.0 34.397273925272025" Properties=species:S:1:pos:R:3:initial_magmoms:R:1 pbc="T T T"
Si      -1.33600806      -1.43271853       1.32332376       0.00000000
Si       1.78756686      -0.79667874      -1.41008264       0.00000000
Si       1.36720341       1.40452380       1.43479163       0.00000000
Si       2.60007948      -2.58705448       0.04774344       0.00000000
Si       2.61656496       2.62741410      -0.21591181       0.00000000
Si       0.74510460      -0.98176572      -3.54470985       0.00000000
Si      -2.22777153      -3.16782575      -0.07763469       0.00000000
Si      -0.00495216      -2.67668225       2.82631348       0.00000000
Si      -2.71090035       0.02015073       2.80568887       0.00000000
Si       2.71598283       0.03170034       2.81582575       0.00000000
