10
Lattice="16.28999089631971 0.0 0.0 0.0 16.28999089631971 0.0 0.0 0.0 34.397273925272025" Properties=species:S:1:pos:R:3:initial_magmoms:R:1 pbc="T T T"
Si       1.05515217       1.49828904       1.37186724       0.00000000
Si      -0.24338889      -2.29646646      -0.29420005       0.00000000
Si       1.17832086       1.08093924      -1.92029768       0.00000000
Si      -2.48538159       0.00635310       0.32395371       0.00000000
Si      -2.06910693      -1.06686468      -1.71989905       0.00000000
Si      -0.76698207       0.43060986      -3.04381647       0.00000000
Si       3.09806478      -0.46685511      -1.67910387       0.00000000
Si       0.08829180      -3.07289673       1.93274950       0.00000000
Si       3.39951123       1.02108978       0.81301442       0.00000000
Si       0.89827947       0.49256073       3.51024377       0.00000000
