10
Lattice="16.28999089631971 0.0 0.0 0.0 16.28999089631971 0.0 0.0 0.0 34.397273925272025" Properties=species:S:1:pos:R:3:initial_magmoms:R:1 pbc="T T T"
Si      -0.20523771      -1.10219769      -1.97990819       0.00000000
Si      -2.08296972      -0.57088305       0.78329516       0.00000000
Si       1.14805404      -1.13135679       1.69468584       0.00000000
Si       0.68830137       2.26387017      -0.11794832       0.00000000
Si      -2.02098627       0.66979593       2.72285533       0.00000000
Si       3.29629779      -0.71201961       0.86646781       0.00000000
Si      -0.02808396      -0.21092292       3.55664571       0.00000000
Si      -0.76092219      -3.27262842      -1.20603789       0.00000000
Si       1.96180470      -1.08732492      -2.81314822       0.00000000
Si       3.36010572       0.18938754      -1.31002091       0.00000000
