10
Lattice="16.28999089631971 0.0 0.0 0.0 16.28999089631971 0.0 0.0 0.0 34.397273925272025" Properties=species:S:1:pos:R:3:initial_magmoms:R:1 pbc="T T T"
Si       2.27258532      -0.34924131      -0.47299718       0.00000000
Si      -0.06380793      -0.90140715       2.17648872       0.00000000
Si      -0.58831335       2.28874500       0.07436695       0.00000000
Si      -1.39830102      -1.27671246      -1.50312731       0.00000000
Si       2.25969993      -2.75511141      -0.18220246       0.00000000
Si      -2.67180435       2.07448263       1.19207259       0.00000000
Si      -3.36010572      -0.18938754       1.31002091       0.00000000
Si       0.86040522      -3.06623412       1.75250769       0.00000000
Si       2.40748281       0.50153652      -2.88479778       0.00000000
Si       1.33571484       0.39042243       3.56944151       0.00000000
