10
Lattice="16.28999089631971 0.0 0.0 0.0 16.28999089631971 0.0 0.0 0.0 34.397273925272025" Properties=species:S:1:pos:R:3:initial_magmoms:R:1 pbc="T T T"
Si      -2.24433846       0.52549911      -0.33729986       0.00000000
Si      -0.21385512      -2.06966079       1.09053178       0.00000000
Si       1.21580415      -0.62426538      -1.93722115       0.00000000
Si       1.46528550       1.24849818       1.39735564       0.00000000
Si       2.06847162      -2.52094266       1.19052471       0.00000000
Si       2.48007105      -2.46712050      -1.11020703       0.00000000
Si       3.15428157      -0.36924543       1.91396858       0.00000000
Si      -3.50810037      -1.41499827      -0.63999604       0.00000000
Si       2.06400816       3.22532226       0.29392487       0.00000000
Si      -0.18371862      -1.91609496      -3.33017394       0.00000000
