10
Lattice="16.28999089631971 0.0 0.0 0.0 16.28999089631971 0.0 0.0 0.0 34.397273925272025" Properties=species:S:1:pos:R:3:initial_magmoms:R:1 pbc="T T T"
Si      -1.99839204       0.08063550      -1.27648355       0.00000000
Si       1.49483556       1.41545439      -1.20958081       0.00000000
Si       0.25708878       0.57883257       2.42067511       0.00000000
Si      -0.79557102      -2.22321033      -0.91940525       0.00000000
Si       2.09564334      -0.79832403       2.84245472       0.00000000
Si       0.44903385      -3.64526217       0.54440596       0.00000000
Si      -3.46465657       1.40639715      -0.02535081       0.00000000
Si       2.08933911      -0.07073118      -3.13228631       0.00000000
Si       0.53857998      -2.73929382       2.69372082       0.00000000
Si       3.35916090       1.96128342       0.21673734       0.00000000
