10
Lattice="16.28999089631971 0.0 0.0 0.0 16.28999089631971 0.0 0.0 0.0 34.397273925272025" Properties=species:S:1:pos:R:3:initial_magmoms:R:1 pbc="T T T"
Si      -1.05515217      -1.49828904      -1.37186724       0.00000000
Si      -0.15687270      -1.00572831       2.13837652       0.00000000
Si       2.34435906      -0.47719926      -0.55885282       0.00000000
Si      -0.60005844       2.35454031      -0.42061010       0.00000000
Si       0.12316869      -0.41734980      -3.29216493       0.00000000
Si       1.65139875       0.24276987       2.99249571       0.00000000
Si       3.22253667       0.75329847       1.21965922       0.00000000
Si       1.46199492       3.08218203      -1.36598531       0.00000000
Si       0.43144065      -3.29447331       2.06400958       0.00000000
Si      -3.48496857       0.20206116       1.79227096       0.00000000
