10
Lattice="16.28999089631971 0.0 0.0 0.0 16.28999089631971 0.0 0.0 0.0 34.397273925272025" Properties=species:S:1:pos:R:3:initial_magmoms:R:1 pbc="T T T"
Si      -0.17501976      -1.08330129       2.03019704       0.00000000
Si      -1.92309966       0.74670102      -1.13335641       0.00000000
Si       0.45067914       2.22273792       0.79058739       0.00000000
Si       1.12519917      -1.31597136      -1.68426346       0.00000000
Si       1.72392183       0.66085272      -2.78769423       0.00000000
Si       1.08152568       1.39382127       2.86250834       0.00000000
Si      -0.51629526       1.61371998      -2.95943991       0.00000000
Si       0.36955494      -3.32845425       1.79708658       0.00000000
Si      -1.59506793       3.11072211       1.50780535       0.00000000
Si       2.91187008       2.21596128      -1.37389668       0.00000000
