10
Lattice="16.28999089631971 0.0 0.0 0.0 16.28999089631971 0.0 0.0 0.0 34.397273925272025" Properties=species:S:1:pos:R:3:initial_magmoms:R:1 pbc="T T T"
Si      -1.54955367      -0.39045990       1.73812962       0.00000000
Si       0.15827364      -1.37131012      -1.94791871       0.00000000
Si       1.96270065       0.58541373       1.22729542       0.00000000
Si      -0.13683600       2.14444818      -1.04574651       0.00000000
Si      -0.93441069       1.76120964       2.71673261       0.00000000
Si       1.26600993       2.69806383       2.15722624       0.00000000
Si       2.52012816      -1.61811584       2.25556810       0.00000000
Si      -3.68426762      -0.27817944       0.67212311       0.00000000
Si       2.37723228      -2.18568536      -1.93780591       0.00000000
Si      -0.60996276       0.03137454      -3.72405734       0.00000000
