10
Lattice="16.28999089631971 0.0 0.0 0.0 16.28999089631971 0.0 0.0 0.0 34.397273925272025" Properties=species:S:1:pos:R:3:initial_magmoms:R:1 pbc="T T T"
Si      -1.30271130       1.33068123       1.44872455       0.00000000
Si       1.22065857       1.59889608      -1.25778812       0.00000000
Si      -1.56801024      -1.18594458      -1.40129554       0.00000000
Si       1.42029252      -1.38512241       1.43431553       0.00000000
Si      -2.58111792       2.70207117      -0.03144601       0.00000000
Si      -2.64582180      -0.02860524       2.81548380       0.00000000
Si      -2.68012854      -2.81093724      -0.03552208       0.00000000
Si       2.77803144       2.71862181       0.06025030       0.00000000
Si       0.06480162       2.68993512       2.81555259       0.00000000
Si      -0.79180803       3.55317480      -1.44903899       0.00000000
