10
Lattice="16.28999089631971 0.0 0.0 0.0 16.28999089631971 0.0 0.0 0.0 34.397273925272025" Properties=species:S:1:pos:R:3:initial_magmoms:R:1 pbc="T T T"
Si      -1.35674523       1.35710494       1.35762676       0.00000000
Si       1.35697329      -1.35694071       1.35834911       0.00000000
Si       1.35773892       1.35802037      -1.35752357       0.00000000
Si      -1.35912357      -1.35728280      -1.35724839       0.00000000
Si       2.71388142       0.00096111       2.71487516       0.00000000
Si      -0.00076563      -2.71432125       2.71549431       0.00000000
Si       2.71500543      -2.71485882       0.00003440       0.00000000
Si      -2.71520743      -2.71485882       0.00000000       0.00000000
Si       2.71476108       0.00190593      -2.71535672       0.00000000
Si      -0.00039096       2.71617084       2.71435920       0.00000000
