10
Lattice="16.28999089631971 0.0 0.0 0.0 16.28999089631971 0.0 0.0 0.0 34.397273925272025" Properties=species:S:1:pos:R:3:initial_magmoms:R:1 pbc="T T T"
Si       1.35407367      -1.35106002       1.36123848       0.00000000
Si      -1.35374787       1.35423657       1.36127288       0.00000000
Si       1.35773892       1.35738054      -1.35714520       0.00000000
Si      -1.35708732      -1.35773892      -1.35828031       0.00000000
Si      -2.71348394      -2.71542897       0.00141029       0.00000000
Si       0.00076563       2.71432125      -2.71549431       0.00000000
Si       2.71464705       2.71528236      -0.00061915       0.00000000
Si      -2.71444180      -0.00053757      -2.71549431       0.00000000
Si      -2.71562608       2.71487511      -0.00037837       0.00000000
Si       0.00063531      -2.71538010      -2.71545991       0.00000000
