10
Lattice="16.28999089631971 0.0 0.0 0.0 16.28999089631971 0.0 0.0 0.0 34.397273925272025" Properties=species:S:1:pos:R:3:initial_magmoms:R:1 pbc="T T T"
Si      -1.35910728      -1.35514881      -1.39212725       0.00000000
Si       1.35599589       1.35864887      -1.39432868       0.00000000
Si      -1.31634603       1.42487182       1.48372724       0.00000000
Si       1.41014385      -1.34599383       1.52259618       0.00000000
Si       2.71379997       0.45227556       2.43494998       0.00000000
Si       2.70498708      -2.71217097      -0.00794577       0.00000000
Si      -2.71650085       2.71710262      -0.01069756       0.00000000
Si       2.70966231       2.73033336      -0.02483485       0.00000000
Si      -2.72320744      -2.72113047      -0.02039759       0.00000000
Si      -0.00535941      -2.70938538      -2.75340012       0.00000000
