10
Lattice="16.28999089631971 0.0 0.0 0.0 16.28999089631971 0.0 0.0 0.0 34.397273925272025" Properties=species:S:1:pos:R:3:initial_magmoms:R:1 pbc="T T T"
Si      -1.29247336       1.33875618       1.41913600       0.00000000
Si       1.05297583       1.88974914      -0.97071638       0.00000000
Si      -1.27932259      -1.30860030      -1.57632273       0.00000000
Si       1.45110343      -1.36983817       1.39111941       0.00000000
Si      -2.53874830      -2.63576665       0.01120320       0.00000000
Si      -2.63165017       2.68391922      -0.06501776       0.00000000
Si      -0.75988289       3.45350769      -1.29185711       0.00000000
Si      -2.62607899      -0.01674612       2.78330857       0.00000000
Si       0.09165243       2.69447514       2.77801139       0.00000000
Si       0.24838178      -2.34565804      -3.07408406       0.00000000
