10
Lattice="16.28999089631971 0.0 0.0 0.0 16.28999089631971 0.0 0.0 0.0 34.397273925272025" Properties=species:S:1:pos:R:3:initial_magmoms:R:1 pbc="T T T"
Si       0.58251411      -2.24608149       0.13638527       0.00000000
Si       1.40874291       1.30807071       1.36006897       0.00000000
Si      -1.28831094       0.91399932      -1.79295891       0.00000000
Si      -2.43408438       0.30981951       0.29911886       0.00000000
Si      -1.47953925      -2.97372321       1.08176047       0.00000000
Si       1.68391359      -0.25371675       3.12778026       0.00000000
Si       0.32728239       2.17689039      -2.82690714       0.00000000
Si      -2.29469085       2.73737064      -0.38301386       0.00000000
Si       2.10764907      -2.28042081       1.89625398       0.00000000
Si      -3.15564993      -1.91549223      -0.42119485       0.00000000
