10
Lattice="16.28999089631971 0.0 0.0 0.0 16.28999089631971 0.0 0.0 0.0 34.397273925272025" Properties=species:S:1:pos:R:3:initial_magmoms:R:1 pbc="T T T"
Si       1.61559333       1.26289107      -1.03394823       0.00000000
Si       1.28831094      -0.91399932       1.79295891       0.00000000
Si      -1.30365612      -1.79826939      -0.91235380       0.00000000
Si      -1.14577344      -0.60417981       2.09207777       0.00000000
Si      -1.00637991       1.82337132       1.40994505       0.00000000
Si      -0.00413766       2.27805780      -2.45978483       0.00000000
Si      -1.86733899      -2.82949155       1.37176405       0.00000000
Si      -2.71379997      -0.45227556      -2.43494998       0.00000000
Si       2.71062342      -0.42306759      -2.45493481       0.00000000
Si       2.19854727       3.17685041       0.60209022       0.00000000
