10
Lattice="16.28999089631971 0.0 0.0 0.0 16.28999089631971 0.0 0.0 0.0 34.397273925272025" Properties=species:S:1:pos:R:3:initial_magmoms:R:1 pbc="T T T"
Si      -2.17438920       0.90334566      -0.08619962       0.00000000
Si       0.98179830       1.51093008      -1.55093955       0.00000000
Si      -0.36810513      -2.33067546      -0.43952861       0.00000000
Si       1.52244711      -0.11585448       1.88638195       0.00000000
Si      -2.17699560       2.50320285       1.61395539       0.00000000
Si       3.06006021      -1.72843416       1.14601462       0.00000000
Si       3.03981174       0.40228155      -2.16654791       0.00000000
Si       0.59886927      -1.72165752       3.31049868       0.00000000
Si       1.87211196      -3.28354272      -0.26778293       0.00000000
Si      -2.72145627       1.06069077      -2.44633549       0.00000000
