10
Lattice="16.28999089631971 0.0 0.0 0.0 16.28999089631971 0.0 0.0 0.0 34.397273925272025" Properties=species:S:1:pos:R:3:initial_magmoms:R:1 pbc="T T T"
Si      -1.35715248       1.35750992      -1.35766116       0.00000000
Si       1.35700587      -1.35738215      -1.35793634       0.00000000
Si      -1.35850455      -1.35690974       1.35697321       0.00000000
Si       1.35853713       1.35764350       1.35838350       0.00000000
Si      -2.71179630      -0.00415785       2.71666382       0.00000000
Si       0.00086337      -2.71386674      -2.71508154       0.00000000
Si      -2.71463076       2.71486440      -0.00044716       0.00000000
Si       2.71459818       2.71501101      -0.00030958       0.00000000
Si       2.71523349      -2.71466495      -0.00044716       0.00000000
Si      -2.71464705       0.00014952      -2.71542551       0.00000000
