10
Lattice="16.28999089631971 0.0 0.0 0.0 16.28999089631971 0.0 0.0 0.0 34.397273925272025" Properties=species:S:1:pos:R:3:initial_magmoms:R:1 pbc="T T T"
Si      -1.25801154      -1.41532425       1.38391115       0.00000000
Si       1.48902003       1.25314295       1.31845310       0.00000000
Si       1.40221062      -1.49532444      -1.20882407       0.00000000
Si      -0.81251262       1.79037574      -1.45782608       0.00000000
Si      -2.60007948       2.58705448      -0.04774344       0.00000000
Si       2.66466933       2.64375997      -0.32928529       0.00000000
Si      -2.81538441      -2.53504998       0.06587273       0.00000000
Si      -2.60503164      -0.08962776       2.77857004       0.00000000
Si       0.11590335       2.61875482       2.76808230       0.00000000
Si       0.10257813      -2.78865270       2.77483449       0.00000000
