10
Lattice="16.28999089631971 0.0 0.0 0.0 16.28999089631971 0.0 0.0 0.0 34.397273925272025" Properties=species:S:1:pos:R:3:initial_magmoms:R:1 pbc="T T T"
Si      -1.27778760       1.36736631       1.51601254       0.00000000
Si       1.41942915      -1.32113529       1.48576012       0.00000000
Si       1.41983640       1.53365463      -1.36545012       0.00000000
Si      -1.37797110      -1.45762920      -1.52660144       0.00000000
Si      -2.62733265      -2.68051950       0.12410199       0.00000000
Si      -2.51045190       2.79932247       0.15316427       0.00000000
Si       2.77363314      -2.69941590       0.03141505       0.00000000
Si      -2.65377132       0.02958264       2.87513215       0.00000000
Si      -2.74095540      -0.06357987      -2.81763505       0.00000000
Si       0.06571386      -2.68986996       2.87379065       0.00000000
