10
Lattice="16.28999089631971 0.0 0.0 0.0 16.28999089631971 0.0 0.0 0.0 34.397273925272025" Properties=species:S:1:pos:R:3:initial_magmoms:R:1 pbc="T T T"
Si      -1.35725022      -1.35671265       1.35666364       0.00000000
Si      -1.35690813       1.35778779      -1.35687002       0.00000000
Si       1.35786924      -1.35764118      -1.35721400       0.00000000
Si       1.35674523       1.35933534       1.35735158       0.00000000
Si      -0.00648342      -2.71122615       2.71587268       0.00000000
Si       0.00215028       2.71500543       2.71215777       0.00000000
Si       0.00175932      -2.71412577      -2.71411842       0.00000000
Si      -2.71461447       2.71427238      -0.00048156       0.00000000
Si      -2.71417464      -2.71477737       0.00013759       0.00000000
Si      -2.71546155       0.00133578       2.71408402       0.00000000
