10
Lattice="16.28999089631971 0.0 0.0 0.0 16.28999089631971 0.0 0.0 0.0 34.397273925272025" Properties=species:S:1:pos:R:3:initial_magmoms:R:1 pbc="T T T"
Si       1.25688753      -1.42441389      -1.35153844       0.00000000
Si      -1.09986822      -1.56110328       1.34809871       0.00000000
Si       0.97958286       1.67643648       1.36082571       0.00000000
Si      -1.47302325       1.28410812      -1.35614768       0.00000000
Si      -0.94016106       3.22423083       1.11963189       0.00000000
Si      -2.36187081      -0.15317487       2.74572953       0.00000000
Si       0.72638739      -3.22929702       1.71855756       0.00000000
Si       2.59796178      -0.07104069      -2.71157302       0.00000000
Si       2.53001619      -2.77980705       0.13242958       0.00000000
Si       2.64075561       2.71805166       0.06225910       0.00000000
