10
Lattice="16.28999089631971 0.0 0.0 0.0 16.28999089631971 0.0 0.0 0.0 34.397273925272025" Properties=species:S:1:pos:R:3:initial_magmoms:R:1 pbc="T T T"
Si      -0.19243377      -0.49420602       2.31050058       0.00000000
Si      -1.68899607       1.61774361      -0.51661295       0.00000000
Si       1.87939359      -0.56104389      -1.47406160       0.00000000
Si      -1.08580995      -2.15169723      -0.72344387       0.00000000
Si       1.70735490       1.74638574       0.67975931       0.00000000
Si       2.98164015       1.49892435      -1.22574754       0.00000000
Si      -3.15428157       0.36924543      -1.91396858       0.00000000
Si       2.97561285       0.47949615       2.21339702       0.00000000
Si      -0.67421052      -2.09787507      -3.02417562       0.00000000
Si       2.95759611      -2.31127407      -0.33382573       0.00000000
