10
Lattice="16.28999089631971 0.0 0.0 0.0 16.28999089631971 0.0 0.0 0.0 34.397273925272025" Properties=species:S:1:pos:R:3:initial_magmoms:R:1 pbc="T T T"
Si      -1.36298430       1.39404933      -1.29103360       0.00000000
Si       0.86079618      -1.71079209      -1.43649976       0.00000000
Si      -1.24936155      -1.22289030       1.65070344       0.00000000
Si       1.37797110       1.45762920       1.52660144       0.00000000
Si       0.73107891       2.00181294      -2.48823139       0.00000000
Si       2.64818385      -2.57070861      -0.06563004       0.00000000
Si      -2.61656496      -2.62741410       0.21591181       0.00000000
Si      -0.82899810      -3.42409284      -1.19417083       0.00000000
Si      -2.44967391       2.85822711       0.28326171       0.00000000
Si       0.09941787      -2.59571376       3.03173756       0.00000000
