10
Lattice="16.28999089631971 0.0 0.0 0.0 16.28999089631971 0.0 0.0 0.0 34.397273925272025" Properties=species:S:1:pos:R:3:initial_magmoms:R:1 pbc="T T T"
Si       1.35567009       1.35876519       1.37855408       0.00000000
Si      -1.35728280      -1.35682668       1.38189061       0.00000000
Si       1.49975514      -1.29950217      -1.34186592       0.00000000
Si      -1.42029252       1.38512241      -1.43431553       0.00000000
Si      -2.70024669      -2.71534752       0.00014447       0.00000000
Si      -2.72300382       2.71580364       0.01440903       0.00000000
Si       0.18256203      -2.69822673      -2.73836992       0.00000000
Si       2.71832859       2.73041577       0.01685811       0.00000000
Si      -2.71202436       0.00141723       2.74006773       0.00000000
Si       0.00156384      -2.71358820       2.74010213       0.00000000
