10
Lattice="16.28999089631971 0.0 0.0 0.0 16.28999089631971 0.0 0.0 0.0 34.397273925272025" Properties=species:S:1:pos:R:3:initial_magmoms:R:1 pbc="T T T"
Si       1.36593279       1.34566803       1.34892425       0.00000000
Si       1.35459495      -1.35567009      -1.35480619       0.00000000
Si      -1.35769005       1.35575154      -1.35336150       0.00000000
Si      -1.35654975      -1.36492281       1.36175444       0.00000000
Si      -0.04781115       2.57328243       2.71504714       0.00000000
Si       0.11647350      -2.64903093       2.71790212       0.00000000
Si       2.71326240       0.00000000      -2.71195139       0.00000000
Si       2.71264338       2.71409319       0.00763620       0.00000000
Si      -0.00215028      -2.71500543      -2.71215777       0.00000000
Si      -0.00174303       2.71555929      -2.71167621       0.00000000
