10
Lattice="16.28999089631971 0.0 0.0 0.0 16.28999089631971 0.0 0.0 0.0 34.397273925272025" Properties=species:S:1:pos:R:3:initial_magmoms:R:1 pbc="T T T"
Si      -0.58251411       2.24608149      -0.13638527       0.00000000
Si       1.52513496      -0.03433932       1.75986871       0.00000000
Si       1.28598147      -0.52727472      -1.92139840       0.00000000
Si      -2.06205336      -0.72764172       0.94537520       0.00000000
Si      -0.56294982      -1.50144930      -3.04866649       0.00000000
Si      -1.46199492      -3.08218203       1.36598531       0.00000000
Si       3.51389961       0.79832403       0.88115546       0.00000000
Si       0.88236414      -3.55938129       0.80713248       0.00000000
Si       1.10139948       1.99236474       2.99139500       0.00000000
Si      -3.73816404       0.33058926      -0.55758012       0.00000000
