10
Lattice="16.28999089631971 0.0 0.0 0.0 16.28999089631971 0.0 0.0 0.0 34.397273925272025" Properties=species:S:1:pos:R:3:initial_magmoms:R:1 pbc="T T T"
Si       1.32116787      -0.80119107       1.80203979       0.00000000
Si       1.28671452       1.56965553      -1.26114236       0.00000000
Si      -2.05801344       1.10864853       0.61560836       0.00000000
Si      -0.27896625      -2.06995401      -1.21745779       0.00000000
Si       0.91828359       1.00563057      -3.47904542       0.00000000
Si      -3.03981174      -0.40228155       2.16654791       0.00000000
Si       2.97478206      -2.19198240       0.86395681       0.00000000
Si       1.69670124      -2.31194196      -2.58798354       0.00000000
Si       2.88390015       0.84742209       2.44819294       0.00000000
Si       3.41503560      -1.36862064      -1.26059200       0.00000000
