10
Lattice="16.28999089631971 0.0 0.0 0.0 16.28999089631971 0.0 0.0 0.0 34.397273925272025" Properties=species:S:1:pos:R:3:initial_magmoms:R:1 pbc="T T T"
Si       0.82222146       1.47289293       1.61952775       0.00000000
Si      -0.91971711       1.29942072      -1.80867847       0.00000000
Si      -1.68621048      -0.87017922       1.50601669       0.00000000
Si       2.04806025      -1.34211681      -0.19307201       0.00000000
Si       2.21539113       2.53478916       0.06404776       0.00000000
Si      -2.16580437      -2.59411734      -0.00037837       0.00000000
Si       3.42565668       0.45559872       0.29935964       0.00000000
Si       0.91580751       2.93594542      -1.89092240       0.00000000
Si       1.29152007      -3.17938446       1.41837238       0.00000000
Si      -0.38379240      -2.30625675       2.90348064       0.00000000
