10
Lattice="16.28999089631971 0.0 0.0 0.0 16.28999089631971 0.0 0.0 0.0 34.397273925272025" Properties=species:S:1:pos:R:3:initial_magmoms:R:1 pbc="T T T"
Si       0.88490538      -1.19961189       1.82818173       0.00000000
Si      -0.94587885      -1.15370667      -1.91761470       0.00000000
Si      -1.40988321       1.72098963       1.07773599       0.00000000
Si       1.90694554       0.96272271      -1.58323861       0.00000000
Si       0.98723916      -0.56426931      -3.18814751       0.00000000
Si      -2.67876018       0.52269723      -2.04247687       0.00000000
Si       3.52216583      -0.26055855      -0.11808591       0.00000000
Si       0.35375364       0.07017732       3.74459252       0.00000000
Si       0.47592864       3.35868849      -1.64525693       0.00000000
Si       0.02915910       3.75165216       0.68643238       0.00000000
