10
Lattice="16.28999089631971 0.0 0.0 0.0 16.28999089631971 0.0 0.0 0.0 34.397273925272025" Properties=species:S:1:pos:R:3:initial_magmoms:R:1 pbc="T T T"
Si      -1.23127965      -1.55557838       1.28477330       0.00000000
Si      -1.41626889       1.17551735      -1.53181466       0.00000000
Si       0.72277101       2.02935281       1.10525382       0.00000000
Si       1.32126561      -1.53197417      -1.51296494       0.00000000
Si       2.65588902       2.61879017      -0.16527899       0.00000000
Si      -2.82414843       2.53722614      -0.06748749       0.00000000
Si      -0.04577490       2.53973480      -2.90894468       0.00000000
Si      -2.67923259      -2.81588681      -0.16737723       0.00000000
Si       2.67046380      -0.18106076      -2.91135249       0.00000000
Si      -1.01011032       3.70575671       0.98039165       0.00000000
