10
Lattice="16.28999089631971 0.0 0.0 0.0 16.28999089631971 0.0 0.0 0.0 34.397273925272025" Properties=species:S:1:pos:R:3:initial_magmoms:R:1 pbc="T T T"
Si       1.27665937       0.46664823       1.91599802       0.00000000
Si      -2.15591634       0.94083384      -0.05066721       0.00000000
Si       0.91189434       0.36820776      -2.15137870       0.00000000
Si      -0.05154156      -2.33755214       0.39023729       0.00000000
Si      -2.65497678       0.65973360       2.20421294       0.00000000
Si       0.68800815       2.71869186       2.14824855       0.00000000
Si      -0.86944617      -3.03196226      -1.65994457       0.00000000
Si       0.58845996      -1.78561436      -3.11099438       0.00000000
Si       2.28240886      -2.90105582       0.63043359       0.00000000
Si       0.47017827      -0.90223957       3.79529413       0.00000000
