10
Lattice="16.28999089631971 0.0 0.0 0.0 16.28999089631971 0.0 0.0 0.0 34.397273925272025" Properties=species:S:1:pos:R:3:initial_magmoms:R:1 pbc="T T T"
Si       0.49906044       0.28110024      -2.25488016       0.00000000
Si      -2.25934155      -0.04974966       0.57526033       0.00000000
Si       0.81524934      -1.88084666       1.14591142       0.00000000
Si       1.07497710       2.02285962       0.61815376       0.00000000
Si       2.65497678      -0.65973360      -2.20421294       0.00000000
Si      -1.97596071      -0.25386336       2.89694003       0.00000000
Si      -0.29563092       2.52025848      -2.49851618       0.00000000
Si      -2.96842896       2.18243646       0.22853562       0.00000000
Si      -0.53367669      -2.09825821       3.09159431       0.00000000
Si      -0.00322542       3.77308980      -0.52208212       0.00000000
