10
Lattice="16.28999089631971 0.0 0.0 0.0 16.28999089631971 0.0 0.0 0.0 34.397273925272025" Properties=species:S:1:pos:R:3:initial_magmoms:R:1 pbc="T T T"
Si      -2.30990571      -0.31887349      -0.44516977       0.00000000
Si       0.81548133      -2.22137023       0.41249234       0.00000000
Si       0.08133597       0.89493513       2.23252191       0.00000000
Si       0.80648110       1.36888780      -1.87929611       0.00000000
Si      -2.04644754      -2.26606999      -1.70971746       0.00000000
Si       2.72718125      -2.16476248      -0.93385211       0.00000000
Si      -0.52171983      -1.43531257      -3.40505684       0.00000000
Si       0.02003670       3.20488483       2.02641333       0.00000000
Si      -0.76198104      -3.73702441      -0.43099808       0.00000000
Si      -3.12515505       1.56197317      -1.59108119       0.00000000
