10
Lattice="16.28999089631971 0.0 0.0 0.0 16.28999089631971 0.0 0.0 0.0 34.397273925272025" Properties=species:S:1:pos:R:3:initial_magmoms:R:1 pbc="T T T"
Si      -0.06129927       2.30994969      -0.20610858       0.00000000
Si       2.13471395      -0.11228045       1.06600651       0.00000000
Si      -0.08133597      -0.89493513      -2.23252191       0.00000000
Si      -1.16708076      -0.20060158       2.26781354       0.00000000
Si      -2.44058409      -1.83237643       1.22296136       0.00000000
Si       0.73414536      -3.11630536      -1.82002958       0.00000000
Si       3.68426762       0.27817944      -0.67212311       0.00000000
Si      -2.39124168      -1.21380862      -2.67769168       0.00000000
Si       1.81215729      -2.45584360       2.27256036       0.00000000
Si       0.88028458       3.41713212       1.65536973       0.00000000
