10
Lattice="16.28999089631971 0.0 0.0 0.0 16.28999089631971 0.0 0.0 0.0 34.397273925272025" Properties=species:S:1:pos:R:3:initial_magmoms:R:1 pbc="T T T"
Si       1.87176728       0.76958847      -1.22683935       0.00000000
Si       1.33917681      -1.34516304       1.48415377       0.00000000
Si      -1.35420399       1.37828061       1.45434507       0.00000000
Si      -1.50342039      -1.32892191      -1.62364652       0.00000000
Si       2.63165017      -2.68391922       0.06501776       0.00000000
Si      -2.67906969      -2.71953894       0.02409186       0.00000000
Si      -2.77363314       2.69941590      -0.03141505       0.00000000
Si       3.68462600      -0.79417008      -0.90569862       0.00000000
Si       2.85265334       2.64894948       0.02778613       0.00000000
Si       0.00557118      -2.70066534       2.84832633       0.00000000
