10
Lattice="16.28999089631971 0.0 0.0 0.0 16.28999089631971 0.0 0.0 0.0 34.397273925272025" Properties=species:S:1:pos:R:3:initial_magmoms:R:1 pbc="T T T"
Si       1.35721911      -1.35685926       1.36137607       0.00000000
Si      -1.35850455       1.35987291       1.36106649       0.00000000
Si      -1.36083402      -1.34754138      -1.38772096       0.00000000
Si       1.37194139       1.35330804      -1.38358640       0.00000000
Si       2.71008163       2.71740006      -0.00034397       0.00000000
Si      -2.71318095       2.71451673       0.00333654       0.00000000
Si      -2.71454931      -2.71627605       0.00030958       0.00000000
Si       2.71667257      -2.71526607       0.00096312       0.00000000
Si       2.71436427       0.00096111       2.71793652       0.00000000
Si      -0.00100998      -2.71446786       2.71831489       0.00000000
