10
Lattice="16.28999089631971 0.0 0.0 0.0 16.28999089631971 0.0 0.0 0.0 34.397273925272025" Properties=species:S:1:pos:R:3:initial_magmoms:R:1 pbc="T T T"
Si       1.35658233       1.35658233      -1.35676683       0.00000000
Si      -1.35736425       1.35112518       1.36161685       0.00000000
Si       1.35306369      -1.35513252       1.36416225       0.00000000
Si      -1.35889551      -1.35843939      -1.35659484       0.00000000
Si      -2.69843850      -0.00224802       2.72165142       0.00000000
Si       2.71383255      -0.00136836      -2.71401522       0.00000000
Si      -0.00128691       2.71417464      -2.71429040       0.00000000
Si       2.71565703       2.71309950       0.00144469       0.00000000
Si      -0.00130320      -2.71551205      -2.71404962       0.00000000
Si      -2.71608057      -0.00144981      -2.71408402       0.00000000
