10
Lattice="16.28999089631971 0.0 0.0 0.0 16.28999089631971 0.0 0.0 0.0 34.397273925272025" Properties=species:S:1:pos:R:3:initial_magmoms:R:1 pbc="T T T"
Si      -0.44676954       0.39296367       2.33168931       0.00000000
Si       0.87500499       1.68627564      -1.59434893       0.00000000
Si      -1.97789922      -1.03752639      -1.43825402       0.00000000
Si       1.43101690      -2.39596578       0.06201832       0.00000000
Si      -0.20781153       2.88888489       1.83093352       0.00000000
Si       1.89584879       0.05931189      -2.93849196       0.00000000
Si      -1.88581185      -1.63769886       2.72299292       0.00000000
Si       3.07342520      -1.44378270      -1.51974121       0.00000000
Si      -0.47592864      -3.35868849       1.64525693       0.00000000
Si      -3.60215883      -1.09268433       1.15526749       0.00000000
