10
Lattice="16.28999089631971 0.0 0.0 0.0 16.28999089631971 0.0 0.0 0.0 34.397273925272025" Properties=species:S:1:pos:R:3:initial_magmoms:R:1 pbc="T T T"
Si       2.17893411      -0.71087931       0.38628160       0.00000000
Si      -0.43694667       1.48341627       1.79196138       0.00000000
Si      -1.43268921      -1.88719650       0.33413531       0.00000000
Si       0.41529726       0.93993300      -2.28057493       0.00000000
Si       3.09257409       1.44634023       0.80259204       0.00000000
Si      -2.04426468       2.83514418       0.67779866       0.00000000
Si       2.71008585      -1.98066852      -1.53012919       0.00000000
Si      -3.56982318      -1.05508701      -0.28749258       0.00000000
Si       1.69779267       2.21087880       2.56775793       0.00000000
Si      -3.55693779       1.35078309      -0.57828729       0.00000000
