10
Lattice="16.28999089631971 0.0 0.0 0.0 16.28999089631971 0.0 0.0 0.0 34.397273925272025" Properties=species:S:1:pos:R:3:initial_magmoms:R:1 pbc="T T T"
Si      -0.25343982       2.31383160      -0.10910821       0.00000000
Si       1.39478142      -0.76453857      -1.76516589       0.00000000
Si      -2.13473934      -0.72746253      -0.77579655       0.00000000
Si       1.21778976      -0.35567586       2.15148189       0.00000000
Si      -2.66613543      -1.67928723       1.29708753       0.00000000
Si       3.31959968      -1.27112499      -0.57973198       0.00000000
Si       3.38158313      -0.03044601       1.35982819       0.00000000
Si       0.48114144      -2.92175811      -2.18147633       0.00000000
Si       1.97987261       3.14212923      -0.30985082       0.00000000
Si      -1.69779267      -2.21087880      -2.56775793       0.00000000
