10
Lattice="16.28999089631971 0.0 0.0 0.0 16.28999089631971 0.0 0.0 0.0 34.397273925272025" Properties=species:S:1:pos:R:3:initial_magmoms:R:1 pbc="T T T"
Si      -1.35284396      -1.33587774       1.36495339       0.00000000
Si      -1.35180140       1.35596331      -1.35490938       0.00000000
Si       1.36308090      -1.35638685      -1.35528775       0.00000000
Si       1.37180745       1.34905635       1.35587250       0.00000000
Si       2.54938386      -0.15403824       2.77462325       0.00000000
Si      -2.50194056       0.25221807       2.85611044       0.00000000
Si      -0.01273082      -2.63321334       2.75147388       0.00000000
Si      -2.71087610      -0.00055386      -2.71312089       0.00000000
Si      -2.71289606       2.71360449       0.00560676       0.00000000
Si      -2.71439474      -2.71226871       0.00780819       0.00000000
