10
Lattice="16.28999089631971 0.0 0.0 0.0 16.28999089631971 0.0 0.0 0.0 34.397273925272025" Properties=species:S:1:pos:R:3:initial_magmoms:R:1 pbc="T T T"
Si      -1.35467640       1.35464382      -1.35772996       0.00000000
Si       1.35725022       1.35646830       1.35714520       0.00000000
Si      -1.35762489      -1.35879777       1.35697321       0.00000000
Si       1.35850455      -1.35987291      -1.36106649       0.00000000
Si      -2.69954622      -0.01891269      -2.71853503       0.00000000
Si      -2.71459818       2.71305063      -0.00048156       0.00000000
Si       0.00760743       2.70642060      -2.72131089       0.00000000
Si       0.00013032       2.71485882       2.71401522       0.00000000
Si       2.71472845      -0.00167787       2.71456558       0.00000000
Si      -2.71487511      -0.00177561       2.71459998       0.00000000
