10
Lattice="16.28999089631971 0.0 0.0 0.0 16.28999089631971 0.0 0.0 0.0 34.397273925272025" Properties=species:S:1:pos:R:3:initial_magmoms:R:1 pbc="T T T"
Si      -0.01948284       0.86719815       2.24662480       0.00000000
Si       1.96326984       0.95447997      -1.32116563       0.00000000
Si      -0.23895801      -2.49592122       0.50075579       0.00000000
Si      -0.09718614       2.18540124      -1.79890964       0.00000000
Si       0.20781153      -2.88888489      -1.83093352       0.00000000
Si       1.98121165      -0.32816205       3.07353573       0.00000000
Si       1.50702278      -2.59488297       2.14381130       0.00000000
Si       1.08281652      -1.20260925      -3.42528245       0.00000000
Si      -1.86043203       1.30554576      -3.24483425       0.00000000
Si      -0.08581572       3.26461374       2.25656562       0.00000000
