10
Lattice="16.28999089631971 0.0 0.0 0.0 16.28999089631971 0.0 0.0 0.0 34.397273925272025" Properties=species:S:1:pos:R:3:initial_magmoms:R:1 pbc="T T T"
Si      -1.00129743      -1.25949393       1.78755853       0.00000000
Si       1.40221062       1.27430154       1.59658476       0.00000000
Si      -1.99545984       1.65315807       0.16011940       0.00000000
Si      -2.87363745       0.42266034      -1.61839264       0.00000000
Si       2.89730682      -1.12404258      -1.56211867       0.00000000
Si      -2.37907305      -1.89307719      -1.88032803       0.00000000
Si       1.45826451      -3.15470511      -1.17081506       0.00000000
Si      -2.51397054      -2.74385502       0.53147258       0.00000000
Si      -0.25808247      -2.60969058      -2.73854049       0.00000000
Si       3.11678199       2.23907679       0.18375034       0.00000000
