10
Lattice="16.28999089631971 0.0 0.0 0.0 16.28999089631971 0.0 0.0 0.0 34.397273925272025" Properties=species:S:1:pos:R:3:initial_magmoms:R:1 pbc="T T T"
Si       1.11537045       1.53293787       1.38407828       0.00000000
Si      -1.90101042       1.38930894      -0.11578129       0.00000000
Si      -0.11935683      -2.18323467       0.95607276       0.00000000
Si       0.82959661      -0.20631285      -2.26172522       0.00000000
Si       1.29063456      -3.09852090      -0.71735555       0.00000000
Si      -0.95215050       3.08151414      -1.55286580       0.00000000
Si       0.07998390      -2.38213557      -2.68051226       0.00000000
Si      -0.14211396       1.67842386      -3.22419588       0.00000000
Si       3.38969555       1.09594233       0.99480412       0.00000000
Si      -2.22233067      -3.09584934       0.45242760       0.00000000
