10
Lattice="16.28999089631971 0.0 0.0 0.0 16.28999089631971 0.0 0.0 0.0 34.397273925272025" Properties=species:S:1:pos:R:3:initial_magmoms:R:1 pbc="T T T"
Si       1.35671265       1.35668007       1.35855549       0.00000000
Si      -1.36028016       1.35658233      -1.35683563       0.00000000
Si      -1.35811359      -1.35913986       1.35814272       0.00000000
Si       1.35720135      -1.36226754      -1.35903705       0.00000000
Si       2.71339855      -0.00184077       2.71532232       0.00000000
Si      -0.00127062       2.71341229       2.71566629       0.00000000
Si       2.71502172       2.71420722       0.00106632       0.00000000
Si       2.71485256      -2.71492398       0.00161667       0.00000000
Si      -0.00089595      -2.71479366       2.71511594       0.00000000
Si      -2.71516833       2.71559262       0.00147908       0.00000000
