10
Lattice="16.28999089631971 0.0 0.0 0.0 16.28999089631971 0.0 0.0 0.0 34.397273925272025" Properties=species:S:1:pos:R:3:initial_magmoms:R:1 pbc="T T T"
Si       1.35721764      -1.35565380       1.35697321       0.00000000
Si      -1.35751086      -1.35746199      -1.35752357       0.00000000
Si      -1.35751086       1.35839052       1.35748917       0.00000000
Si       1.35811359       1.35913986      -1.35814272       0.00000000
Si      -2.71280628      -0.00009774       2.71473757       0.00000000
Si       2.71433754      -2.71404432       0.00010319       0.00000000
Si      -0.00027693      -2.71274112       2.71576949       0.00000000
Si       2.71547784       0.00190593       2.71322409       0.00000000
Si       0.00034209       2.71653669       2.71346487       0.00000000
Si      -2.71552671      -2.71458189       0.00020638       0.00000000
