10
Lattice="16.28999089631971 0.0 0.0 0.0 16.28999089631971 0.0 0.0 0.0 34.397273925272025" Properties=species:S:1:pos:R:3:initial_magmoms:R:1 pbc="T T T"
Si       1.27350333       1.63177486       1.04485218       0.00000000
Si      -1.39316967      -1.06189623       1.55547999       0.00000000
Si      -1.29958362       0.40115626      -1.95497016       0.00000000
Si       1.21026555      -2.07919044       0.23531188       0.00000000
Si       2.44058409       1.83237643      -1.22296136       0.00000000
Si      -2.21539113      -2.53478916      -0.06404776       0.00000000
Si       0.48163014      -2.50900209       2.69217294       0.00000000
Si       2.72503701       0.41359058       2.54736034       0.00000000
Si      -3.13510824      -1.23536844      -1.87272623       0.00000000
Si      -0.16733088      -3.87690597      -0.25711977       0.00000000
