10
Lattice="16.28999089631971 0.0 0.0 0.0 16.28999089631971 0.0 0.0 0.0 34.397273925272025" Properties=species:S:1:pos:R:3:initial_magmoms:R:1 pbc="T T T"
Si      -0.93024045       2.19475170       0.15667967       0.00000000
Si      -0.15081282      -0.40221639       2.40203178       0.00000000
Si      -1.43548295      -1.48162437      -1.35766116       0.00000000
Si       2.26080765       0.50464791      -0.95672631       0.00000000
Si      -1.48726560       3.08871432      -1.92968815       0.00000000
Si       0.06550209       3.43158624       1.95548612       0.00000000
Si      -0.53090739      -1.72972107      -3.51423385       0.00000000
Si      -3.49593893      -0.25070310      -1.83540517       0.00000000
Si       1.05200820      -2.70606222       2.75911008       0.00000000
Si       3.93691833      -0.55358307       0.54622902       0.00000000
