10
Lattice="16.28999089631971 0.0 0.0 0.0 16.28999089631971 0.0 0.0 0.0 34.397273925272025" Properties=species:S:1:pos:R:3:initial_magmoms:R:1 pbc="T T T"
Si       0.90457555      -0.24809670      -2.15657269       0.00000000
Si      -2.06045598       1.23092127      -0.47774400       0.00000000
Si       1.43548295       1.48162437       1.35766116       0.00000000
Si      -1.96326984      -0.95447997       1.32116563       0.00000000
Si      -0.88045332      -2.15708922      -2.10411682       0.00000000
Si      -1.15515615       2.97245259      -1.90437174       0.00000000
Si       0.12662217       1.64235780      -3.42617678       0.00000000
Si       2.43192595      -2.91843495       1.27658674       0.00000000
Si       0.50524250       3.67637607       1.51434083       0.00000000
Si      -1.98275268      -0.08728182       3.56779044       0.00000000
