10
Lattice="16.28999089631971 0.0 0.0 0.0 16.28999089631971 0.0 0.0 0.0 34.397273925272025" Properties=species:S:1:pos:R:3:initial_magmoms:R:1 pbc="T T T"
Si      -0.97171057       1.88473671      -0.96247066       0.00000000
Si      -0.74961271      -2.17582272      -0.41878704       0.00000000
Si       2.11326423      -0.19139121      -1.06205082       0.00000000
Si      -0.82959661       0.20631285       2.26172522       0.00000000
Si       0.46103795      -2.89220805       1.54436967       0.00000000
Si      -3.04589998      -1.87010829      -0.72499175       0.00000000
Si       0.59311238       2.75465529      -2.44870890       0.00000000
Si      -1.78174711       3.28782699       0.70885942       0.00000000
Si      -2.73060703       1.59562179       2.14594393       0.00000000
Si       2.68768221       1.87435998      -1.96910744       0.00000000
