10
Lattice="16.28999089631971 0.0 0.0 0.0 16.28999089631971 0.0 0.0 0.0 34.397273925272025" Properties=species:S:1:pos:R:3:initial_magmoms:R:1 pbc="T T T"
Si      -1.73412656      -1.03557159      -1.19128696       0.00000000
Si      -1.55343788       1.14158691       1.39453850       0.00000000
Si       1.12306518       1.38150603      -1.59552674       0.00000000
Si       1.15124688      -1.59309684       1.37990245       0.00000000
Si       1.88905356      -0.44685099      -2.85188787       0.00000000
Si      -0.17986603      -1.77839559      -2.98362950       0.00000000
Si       2.57149053       2.49974937      -0.08485468       0.00000000
Si      -0.21502637       2.48409468       2.76444854       0.00000000
Si       2.50678665      -0.23092704       2.76207512       0.00000000
Si      -2.84034788       2.58462027      -0.00648733       0.00000000
