10
Lattice="10.86 0.0 0.0 0.0 10.86 0.0 0.0 0.0 10.86" Properties=species:S:1:pos:R:3:initial_magmoms:R:1 pbc="T T T"
Si       1.30389504      -1.35229806      -1.35819504       0.00000000
Si       1.30389504       1.36270194       1.35680496       0.00000000
Si      -1.41110496      -1.35229806       1.35680496       0.00000000
Si      -2.67198354       0.17695284      -2.40123288       0.00000000
Si       2.66139504      -2.70979806      -0.00069504       0.00000000
Si       2.66139504       0.00520194       2.71430496       0.00000000
Si       2.52244134      -0.04935870      -2.84886036       0.00000000
Si      -0.05360496      -2.70979806       2.71430496       0.00000000
Si      -0.05360496      -2.70979806      -2.71569504       0.00000000
Si      -0.05360496       2.72020194       2.71430496       0.00000000
