10
Lattice="10.86 0.0 0.0 0.0 10.86 0.0 0.0 0.0 10.86" Properties=species:S:1:pos:R:3:initial_magmoms:R:1 pbc="T T T"
Si      -1.38734328      -1.29818268       1.40479530       0.00000000
Si      -1.38734328       1.41681732      -1.31020470       0.00000000
Si       1.32765672       1.41681732       1.40479530       0.00000000
Si      -2.66149278      -2.60181708       0.07448874       0.00000000
Si      -0.09956448      -2.31712218      -2.93795580       0.00000000
Si       2.79702558      -0.02068830      -2.56233012       0.00000000
Si      -0.02984328      -2.65568268       2.76229530       0.00000000
Si      -0.02984328       2.77431732      -2.66770470       0.00000000
Si       2.68515672       0.05931732       2.76229530       0.00000000
Si       2.68515672       2.77431732       0.04729530       0.00000000
