10
Lattice="16.290000149 0.0 0.0 0.0 16.290000149 0.0 0.0 0.0 29.1751946751" Properties=species:S:1:pos:R:3:initial_magmoms:R:1 pbc="T T T"
Si      -1.37477827       1.38333052       1.31148335       0.00000000
Si      -1.36205578      -1.34345260      -1.36712045       0.00000000
Si       1.35268903       1.35000118      -1.37330559       0.00000000
Si       1.34693866      -1.33434649       1.40764479       0.00000000
Si       0.01115865       2.73401588       2.65678075       0.00000000
Si       2.67142970      -2.72542780       0.04408372       0.00000000
Si      -2.69713532      -2.70555725       0.00320927       0.00000000
Si      -0.06388938      -2.61842530       2.79107417       0.00000000
Si      -0.01066995      -2.69215547      -2.73890893       0.00000000
Si       2.71386515      -0.00042354      -2.72507988       0.00000000
