10
Lattice="16.290000149 0.0 0.0 0.0 16.290000149 0.0 0.0 0.0 29.1751946751" Properties=species:S:1:pos:R:3:initial_magmoms:R:1 pbc="T T T"
Si       1.61267743      -0.17383059      -1.67909080       0.00000000
Si      -0.43670232       2.28928911      -0.30304275       0.00000000
Si       0.24817815      -0.51427530       2.29851666       0.00000000
Si      -1.89760583      -1.30085425      -0.63135121       0.00000000
H        1.33064866      -2.22464387       1.51492198       0.00000000
H       -2.78076819      -0.45010899      -1.52069867       0.00000000
Si      -1.49802841       1.02801304       2.74989922       0.00000000
Si       0.05095512      -0.95086360      -3.27199808       0.00000000
Si      -2.33160401       2.27256091       1.03650714       0.00000000
Si      -0.86312566      -2.78622534      -2.10294803       0.00000000
