10
Lattice="16.290000149 0.0 0.0 0.0 16.290000149 0.0 0.0 0.0 29.1751946751" Properties=species:S:1:pos:R:3:initial_magmoms:R:1 pbc="T T T"
Si       1.32621778       1.38230425      -1.37639524       0.00000000
Si       1.34905636      -1.36233271       1.37644484       0.00000000
Si      -1.36317979       1.34775316       1.39080195       0.00000000
Si      -1.38895057      -1.37875303      -1.34205604       0.00000000
Si       2.52462422      -0.09032805      -2.80612566       0.00000000
Si      -2.64684809      -2.74752030       0.08419378       0.00000000
Si      -2.84135070       0.03660363      -2.56047052       0.00000000
Si       2.72101646       0.04388526       2.68887638       0.00000000
Si      -0.07231131       2.80662042      -2.60184094       0.00000000
Si       2.63498897       2.82888885      -0.00611512       0.00000000
