10
Lattice="16.290000149 0.0 0.0 0.0 16.290000149 0.0 0.0 0.0 29.1751946751" Properties=species:S:1:pos:R:3:initial_magmoms:R:1 pbc="T T T"
Si      -1.37196010      -1.40621797      -1.31243154       0.00000000
Si      -1.34633593       1.27923742       1.46068530       0.00000000
Si       1.33957558      -1.33643161       1.42194064       0.00000000
Si       1.34141635       1.41819112      -1.36019134       0.00000000
Si       2.67167405      -0.02225214      -2.67437339       0.00000000
Si       0.05967027      -2.77808034      -2.59683740       0.00000000
Si      -2.68082903      -2.69576696       0.15824626       0.00000000
Si      -2.77951386       2.59889033       0.17764776       0.00000000
Si      -2.72101646      -0.04388526      -2.68887638       0.00000000
Si       2.68817582       2.75110410       0.02885427       0.00000000
