10
Lattice="16.290000149 0.0 0.0 0.0 16.290000149 0.0 0.0 0.0 29.1751946751" Properties=species:S:1:pos:R:3:initial_magmoms:R:1 pbc="T T T"
Si       1.25789752       1.36876726      -1.42624981       0.00000000
Si       1.37484343      -1.26438094       1.41757603       0.00000000
Si      -0.80966188      -1.85930804      -1.18135586       0.00000000
Si      -1.42705288       1.37564164       1.29372441       0.00000000
Si      -2.68363091      -2.66178602       0.01458468       0.00000000
Si      -0.05238864      -2.65509083       2.69897684       0.00000000
Si       2.66194892      -2.71360451       0.08958244       0.00000000
Si       2.64684809       2.74752030      -0.08419378       0.00000000
Si      -0.08346996       2.74509309       2.65722713       0.00000000
Si      -0.19450260       2.78412393      -2.64466429       0.00000000
