10
Lattice="16.290000149 0.0 0.0 0.0 16.290000149 0.0 0.0 0.0 29.1751946751" Properties=species:S:1:pos:R:3:initial_magmoms:R:1 pbc="T T T"
Si       1.34480467       1.37468053      -1.31302964       0.00000000
Si       1.54844596      -1.31864293       1.18244147       0.00000000
Si      -1.36511830       1.36484137       1.34760224       0.00000000
Si      -1.40796100      -1.33014367      -1.35227027       0.00000000
Si       2.57683367       2.80195822       0.11602975       0.00000000
Si      -0.05641227       2.71482626      -2.67183515       0.00000000
Si       2.64855854       0.02808396      -2.74313933       0.00000000
Si       2.63122598      -2.75028960      -0.30671882       0.00000000
Si      -2.71085150       0.07566705       2.72041185       0.00000000
Si      -2.78754483      -2.65064366       0.00787730       0.00000000
