10
Lattice="16.290000149 0.0 0.0 0.0 16.290000149 0.0 0.0 0.0 29.1751946751" Properties=species:S:1:pos:R:3:initial_magmoms:R:1 pbc="T T T"
Si       1.36497169       1.35534430       1.34693121       0.00000000
Si       1.37020078      -1.36327753      -1.33625309       0.00000000
Si      -1.34794864       1.36091548      -1.36548664       0.00000000
Si      -1.34879572      -1.34749252       1.37809032       0.00000000
Si      -0.00962739       2.71955036       2.67977081       0.00000000
Si       2.71533125      -0.02174715       2.68875677       0.00000000
Si       2.72174951       0.01228266      -2.68309678       0.00000000
Si      -2.69638598      -2.70943427       0.02759973       0.00000000
Si       0.02332728      -2.72021825      -2.69867633       0.00000000
Si      -2.70798446       0.00645084      -2.71909897       0.00000000
