10
Lattice="16.290000149 0.0 0.0 0.0 16.290000149 0.0 0.0 0.0 29.1751946751" Properties=species:S:1:pos:R:3:initial_magmoms:R:1 pbc="T T T"
Si       0.90846073       0.07301178      -1.21628469       0.00000000
H       -1.27084807      -1.75932002      -0.43141360       0.00000000
H        1.89946289       0.42427305       1.23764093       0.00000000
Si      -1.80514379      -2.01694637       0.95551680       0.00000000
Si       1.18123678       2.94199032       0.24848513       0.00000000
Si       0.01743030       1.48996486      -2.80957125       0.00000000
Si       1.24154236      -2.04742496      -2.14577722       0.00000000
Si       2.79726996       1.41314122      -0.82950913       0.00000000
Si      -2.65637774      -0.14230944       2.07152635       0.00000000
H       -2.86687713      -0.91815328      -1.60516086       0.00000000
