10
Lattice="16.290000149 0.0 0.0 0.0 16.290000149 0.0 0.0 0.0 29.1751946751" Properties=species:S:1:pos:R:3:initial_magmoms:R:1 pbc="T T T"
Si      -2.24595119       0.50528322      -0.27669755       0.00000000
Si       0.93110383      -0.81530148      -1.99497064       0.00000000
Si       0.28519783      -1.82526927       1.57061743       0.00000000
Si       1.33385779       1.97817617       0.48600039       0.00000000
Si       2.96738643       0.79449589       1.69957821       0.00000000
Si       1.63165854      -0.61198110       3.05272899       0.00000000
Si       2.77224852      -1.98982352      -1.06261894       0.00000000
Si      -0.93701710      -1.71521321      -3.11634842       0.00000000
Si      -2.97598755       1.13935519       1.90287476       0.00000000
Si       1.45641072      -3.41661576       0.28410805       0.00000000
