10
Lattice="16.290000149 0.0 0.0 0.0 16.290000149 0.0 0.0 0.0 29.1751946751" Properties=species:S:1:pos:R:3:initial_magmoms:R:1 pbc="T T T"
Si       1.37111302      -1.34571691      -1.33844123       0.00000000
Si       1.37854126       1.33525873       1.34430544       0.00000000
Si      -1.35016408      -1.36440154       1.35661738       0.00000000
Si      -1.34579836       1.35922132      -1.36895848       0.00000000
Si      -0.00066789       2.70075170       2.65605137       0.00000000
Si      -0.01449810      -2.69601131      -2.66328682       0.00000000
Si      -2.72215676      -0.00791694       2.68919439       0.00000000
Si       2.74170477       0.01272249      -2.67632813       0.00000000
Si      -2.69267186       0.00228060      -2.73138173       0.00000000
Si       2.73496071       2.69101028      -0.01307049       0.00000000
