10
Lattice="16.290000149 0.0 0.0 0.0 16.290000149 0.0 0.0 0.0 29.1751946751" Properties=species:S:1:pos:R:3:initial_magmoms:R:1 pbc="T T T"
H       -0.61892227      -0.08724924      -1.39212359       0.00000000
Si       0.47218194      -2.02696472       1.06652842       0.00000000
Si      -1.71624926       0.44448894       1.52813835       0.00000000
H        1.51423696      -0.84880675      -1.67666926       0.00000000
Si       1.89415235       1.50548923       0.31695931       0.00000000
Si       0.77748913      -0.93175543      -2.99179951       0.00000000
Si      -2.56367135       2.29053692       0.40676056       0.00000000
Si      -0.34225290       1.47310471       3.16346636       0.00000000
Si       2.06689151      -1.21244842       2.62702205       0.00000000
Si       0.92398510       2.95440330       1.83666603       0.00000000
