10
Lattice="16.290000149 0.0 0.0 0.0 16.290000149 0.0 0.0 0.0 29.1751946751" Properties=species:S:1:pos:R:3:initial_magmoms:R:1 pbc="T T T"
Si      -1.36875097      -1.34874685      -1.33785773       0.00000000
Si      -1.36541152       1.34711785       1.34996543       0.00000000
Si       1.32493087      -1.38357487       1.36020593       0.00000000
Si       1.38492303       1.33170751      -1.36787900       0.00000000
Si       0.07395660      -2.68037943      -2.62066186       0.00000000
Si       2.69512677      -0.01466100       2.68513904       0.00000000
Si      -0.00619020       2.71218728       2.68070441       0.00000000
Si      -2.69482214       2.71396289      -0.02564500       0.00000000
Si       0.05502762       2.74056447      -2.67895390       0.00000000
Si      -2.72073953      -0.03152115       2.70526993       0.00000000
