10
Lattice="16.290000149 0.0 0.0 0.0 16.290000149 0.0 0.0 0.0 29.1751946751" Properties=species:S:1:pos:R:3:initial_magmoms:R:1 pbc="T T T"
Si      -1.42335668       1.21520143      -1.38873927       0.00000000
Si       1.14031630      -1.42838866      -1.46488652       0.00000000
Si      -1.47606135      -1.20510163       1.38660948       0.00000000
Si       1.49895694       1.34066701       1.30331430       0.00000000
H        0.03850956      -2.67017537       0.75543332       0.00000000
H       -2.61178876      -0.23768739       1.67494793       0.00000000
H        2.05333823      -2.32293773      -0.65851332       0.00000000
Si      -0.18999027      -1.04684428       3.41326438       0.00000000
Si      -2.85304692       2.46365075      -0.02182305       0.00000000
Si      -0.05968656       2.64466523      -2.68864007       0.00000000
