10
Lattice="16.290000149 0.0 0.0 0.0 16.290000149 0.0 0.0 0.0 29.1751946751" Properties=species:S:1:pos:R:3:initial_magmoms:R:1 pbc="T T T"
Si       1.39004200       1.34498386       1.27561537       0.00000000
Si       1.25793010      -1.40085856      -1.36494398       0.00000000
Si      -1.31491252       1.26363160      -1.47281634       0.00000000
Si      -1.41107239      -1.40440978       1.25776015       0.00000000
Si      -2.17279280      -0.67310281      -2.51265237       0.00000000
Si      -0.46731123      -2.34124769      -2.64047328       0.00000000
Si      -0.03500721       2.70528032       2.54596169       0.00000000
Si       2.71993742      -0.06387309       2.58669026       0.00000000
Si       2.57948894      -0.07514577      -2.73025848       0.00000000
Si       2.68537394       2.65932623      -0.19382541       0.00000000
