10
Lattice="16.290000149 0.0 0.0 0.0 16.290000149 0.0 0.0 0.0 29.1751946751" Properties=species:S:1:pos:R:3:initial_magmoms:R:1 pbc="T T T"
Si      -1.30305340      -1.35384562       1.43434301       0.00000000
Si       1.36062063      -1.45824823      -1.28692075       0.00000000
Si       1.39063170       1.28689372       1.43492652       0.00000000
Si      -1.30083796       1.53002197      -1.31821407       0.00000000
Si       2.70589934       0.00348606      -2.52124301       0.00000000
Si      -2.53255745       2.73104964       0.27801043       0.00000000
Si      -2.64981287      -2.68675859       0.04529741       0.00000000
Si       2.80258050       2.67737555       0.17817875       0.00000000
Si      -2.64671777      -0.05066190       2.85841344       0.00000000
Si       0.10915620       2.63210564       2.89135224       0.00000000
