10
Lattice="16.290000149 0.0 0.0 0.0 16.290000149 0.0 0.0 0.0 29.1751946751" Properties=species:S:1:pos:R:3:initial_magmoms:R:1 pbc="T T T"
Si       1.21536433      -1.41507973       1.44957801       0.00000000
Si      -1.48682089      -1.25291278      -1.37581466       0.00000000
Si      -1.48157551       1.29904460       1.33978329       0.00000000
Si       1.61771104       1.48760770      -0.93780746       0.00000000
Si       2.55630827      -2.77081500       0.10468060       0.00000000
H        1.16955685      -1.11060334      -3.44734100       0.00000000
Si       0.88842403       3.67805397      -0.53650265       0.00000000
Si      -2.79792156      -2.61873155       0.11112832       0.00000000
H        3.06901974      -0.68633029      -2.20970007       0.00000000
Si      -0.18366975       2.58284794       2.84594980       0.00000000
