10
Lattice="16.290000149 0.0 0.0 0.0 16.290000149 0.0 0.0 0.0 29.1751946751" Properties=species:S:1:pos:R:3:initial_magmoms:R:1 pbc="T T T"
Si      -1.32976900       1.31440753       1.41972624       0.00000000
Si      -1.42645015      -1.35948196      -1.27969552       0.00000000
Si       1.32900337      -1.39571092       1.36920647       0.00000000
Si       1.33520986       1.36467701      -1.40857840       0.00000000
Si       0.01886382      -2.55309914      -2.63723337       0.00000000
Si       2.63311562       2.64848035       0.09758811       0.00000000
Si      -2.60866108       2.68778649       0.03239614       0.00000000
Si      -2.74171780      -0.07607430       2.67647401       0.00000000
Si       2.66605400      -0.07092666       2.77429844       0.00000000
Si       2.71080263      -2.75234214       0.04443090       0.00000000
