10
Lattice="16.290000149 0.0 0.0 0.0 16.290000149 0.0 0.0 0.0 29.1751946751" Properties=species:S:1:pos:R:3:initial_magmoms:R:1 pbc="T T T"
Si       1.13572741      -0.96741424      -0.28833845       0.00000000
Si      -1.85885518       1.63774774      -0.25455357       0.00000000
H       -1.15470363      -1.80683795       1.93708705       0.00000000
Si      -1.52512194       1.40286223       2.10817039       0.00000000
Si      -0.18050672      -2.66747123      -1.42310765       0.00000000
Si       2.42179848      -0.80915689       1.73831645       0.00000000
Si       2.61178876       0.23768739      -1.67494793       0.00000000
Si      -0.24125816       2.70133814      -1.69677097       0.00000000
Si      -1.08566661      -0.73204003       2.99775125       0.00000000
Si      -2.93114443      -0.06887412      -1.62908452       0.00000000
