10
Lattice="16.290000149 0.0 0.0 0.0 16.290000149 0.0 0.0 0.0 29.1751946751" Properties=species:S:1:pos:R:3:initial_magmoms:R:1 pbc="T T T"
Si       1.35922132       1.36506943       1.33073898       0.00000000
Si       1.36541152      -1.34711785      -1.34996543       0.00000000
Si      -1.32941062       1.36684504      -1.37561043       0.00000000
Si      -1.35532801      -1.37863900       1.35530449       0.00000000
Si       2.69485472      -0.01037673       2.68426379       0.00000000
Si      -0.00333945      -2.69586470      -2.68782316       0.00000000
Si      -2.70798446       0.00296478      -2.68052936       0.00000000
Si      -2.71472852       2.68125257      -0.01727172       0.00000000
Si       0.01251072       2.71290404       2.69713005       0.00000000
Si       2.69755886       2.72275949      -0.04921855       0.00000000
