10
Lattice="16.290000149 0.0 0.0 0.0 16.290000149 0.0 0.0 0.0 29.1751946751" Properties=species:S:1:pos:R:3:initial_magmoms:R:1 pbc="T T T"
Si       0.89103043      -1.41695308       1.59328656       0.00000000
Si      -2.23199066       0.50751495      -0.32320281       0.00000000
Si       0.56052262      -1.03175974      -2.01136710       0.00000000
Si       1.24481665       1.78410525      -0.84222952       0.00000000
H       -0.01743030      -1.48996486       2.80957125       0.00000000
Si       0.60680251       1.11369681      -2.98996148       0.00000000
Si       2.77983966      -0.07682364       1.98006211       0.00000000
Si       3.30271608       1.17776864       0.04822660       0.00000000
Si       1.16380648       1.45202545       3.05805638       0.00000000
Si      -1.06538230      -2.71782362      -2.07724469       0.00000000
