10
Lattice="16.290000149 0.0 0.0 0.0 16.290000149 0.0 0.0 0.0 29.1751946751" Properties=species:S:1:pos:R:3:initial_magmoms:R:1 pbc="T T T"
Si      -1.28951641      -1.44159057       1.27930311       0.00000000
Si       1.30422628      -1.41184503      -1.33981247       0.00000000
Si      -1.43402500       1.62868350      -0.92561223       0.00000000
Si       1.18858357       1.14803564       1.69338665       0.00000000
Si      -0.80853787       2.03622672       2.66436630       0.00000000
Si      -2.31883265       0.18099282       2.59740923       0.00000000
Si      -0.08127081       2.64372970      -2.55811024       0.00000000
Si       2.63325197       2.56371322       0.34770997       0.00000000
Si       0.23812722      -2.43669781       2.78305100       0.00000000
Si       1.76399525      -0.59247431       3.21000079       0.00000000
