10
Lattice="16.290000149 0.0 0.0 0.0 16.290000149 0.0 0.0 0.0 29.1751946751" Properties=species:S:1:pos:R:3:initial_magmoms:R:1 pbc="T T T"
Si      -1.28946754      -1.46018674       1.33123496       0.00000000
Si       1.40849857       1.36309834       1.31635561       0.00000000
Si       1.38481291      -1.34861653      -1.35644233       0.00000000
Si      -1.33859818       1.30463353      -1.44994882       0.00000000
H       -1.11845512       2.90023905       2.12188273       0.00000000
H       -3.01102734       0.66784114       2.17751983       0.00000000
Si      -2.68886000      -2.68946273      -0.08586260       0.00000000
Si       2.71018361      -0.04787631       2.67069732       0.00000000
Si       0.08676054       2.43815690       2.92752656       0.00000000
Si       2.72748359       2.68951160      -0.12507406       0.00000000
