10
Lattice="16.290000149 0.0 0.0 0.0 16.290000149 0.0 0.0 0.0 29.1751946751" Properties=species:S:1:pos:R:3:initial_magmoms:R:1 pbc="T T T"
Si      -1.32155884      -1.32571279       1.36531450       0.00000000
Si       1.26304516      -1.42728094      -1.32708916       0.00000000
Si      -1.13849182       1.50255703      -1.38223028       0.00000000
Si       1.50658229       1.38512242       1.16722660       0.00000000
Si       1.94541698       0.33694236      -2.83267508       0.00000000
H       -2.31989150       0.96555718      -2.43726367       0.00000000
Si       0.53114034       2.28589427      -2.82908653       0.00000000
Si       0.10588500       2.73447201       2.53643307       0.00000000
Si       0.12861957      -2.71041167       2.59188928       0.00000000
Si      -2.57948894       0.07514577       2.73025848       0.00000000
