10
Lattice="16.290000149 0.0 0.0 0.0 16.290000149 0.0 0.0 0.0 29.1751946751" Properties=species:S:1:pos:R:3:initial_magmoms:R:1 pbc="T T T"
Si      -1.43412274       1.34632616      -1.26179799       0.00000000
Si      -1.37964898      -1.34392501       1.33491103       0.00000000
Si       1.34692237       1.38767832       1.33931649       0.00000000
Si       1.35400852      -1.32913369      -1.40119707       0.00000000
Si      -0.10052559       2.68649795      -2.59041594       0.00000000
Si      -0.01055592      -2.69185736       2.67664906       0.00000000
Si       2.70019784      -2.67387320      -0.03553539       0.00000000
Si       2.70690932       0.03495834       2.69237449       0.00000000
Si      -2.73074159       0.03187953       2.68344688       0.00000000
Si      -0.06810849      -2.78889690      -2.62635686       0.00000000
