10
Lattice="16.290000149 0.0 0.0 0.0 16.290000149 0.0 0.0 0.0 29.1751946751" Properties=species:S:1:pos:R:3:initial_magmoms:R:1 pbc="T T T"
Si       1.35998695      -1.35271998       1.35305800       0.00000000
Si      -1.36277254       1.36235063       1.34520988       0.00000000
Si       1.34961022       1.38812141      -1.33508608       0.00000000
Si      -1.34692237      -1.38767832      -1.33931649       0.00000000
Si      -2.78104512      -0.04135217      -2.60111448       0.00000000
Si       0.00039096      -2.71682831       2.69488356       0.00000000
Si      -0.00237834       2.70534711       2.70804157       0.00000000
Si       2.79231780       0.05648883      -2.61789022       0.00000000
Si      -2.72691344       0.01361518       2.69421253       0.00000000
Si      -0.02772558       2.72803908      -2.69403748       0.00000000
