10
Lattice="16.290000149 0.0 0.0 0.0 16.290000149 0.0 0.0 0.0 29.1751946751" Properties=species:S:1:pos:R:3:initial_magmoms:R:1 pbc="T T T"
Si       1.35745874      -1.24263379       1.45652929       0.00000000
Si      -1.17121289       1.59134649       1.28650938       0.00000000
Si       1.31583779       1.42679224      -1.34672699       0.00000000
Si      -1.45831665      -1.38378664      -1.34894430       0.00000000
Si      -0.52530689       2.60131429      -2.27907868       0.00000000
Si       2.80277272      -2.43625097       0.09899144       0.00000000
Si      -1.45641072       3.41661576      -0.28410805       0.00000000
Si       0.00669030      -2.59509476      -2.68691873       0.00000000
Si      -2.64927856       0.28390212       2.65955823       0.00000000
Si       0.01218003      -2.70436808       2.69085154       0.00000000
