10
Lattice="16.290000149 0.0 0.0 0.0 16.290000149 0.0 0.0 0.0 29.1751946751" Properties=species:S:1:pos:R:3:initial_magmoms:R:1 pbc="T T T"
Si      -1.36117612       1.35042472       1.35177429       0.00000000
Si      -1.36039420      -1.34299648      -1.36283169       0.00000000
Si       1.32348106      -1.36317979       1.39422420       0.00000000
Si       1.35532801       1.37863900      -1.35530449       0.00000000
Si       0.01451439       2.71309952       2.68181307       0.00000000
Si       2.69410538      -2.70317566       0.02856252       0.00000000
Si       2.69715161       0.02083491       2.70354859       0.00000000
Si       0.00237834      -2.70534711      -2.70804157       0.00000000
Si      -2.72453510      -2.69173193      -0.01382904       0.00000000
Si      -2.71581995       2.70414002      -0.01520028       0.00000000
