10
Lattice="16.290000149 0.0 0.0 0.0 16.290000149 0.0 0.0 0.0 29.1751946751" Properties=species:S:1:pos:R:3:initial_magmoms:R:1 pbc="T T T"
Si       1.31290066       1.33277972      -1.36720797       0.00000000
Si      -1.27309609      -1.46091979      -1.30092193       0.00000000
Si      -1.30422628       1.41184503       1.33981247       0.00000000
Si       1.23535216      -1.48954132       1.35968077       0.00000000
H       -1.92482642      -2.28164258      -0.22654539       0.00000000
Si      -2.59374269      -0.02974554       2.61911558       0.00000000
Si       2.54166193       2.69181827       0.07967746       0.00000000
Si      -0.15602562       2.62652958      -2.63670822       0.00000000
Si       2.69132631      -0.06439437      -2.66395785       0.00000000
Si       2.57220080      -2.79625998      -0.06260997       0.00000000
