10
Lattice="16.290000149 0.0 0.0 0.0 16.290000149 0.0 0.0 0.0 29.1751946751" Properties=species:S:1:pos:R:3:initial_magmoms:R:1 pbc="T T T"
Si       1.36003582       1.35446464       1.35361233       0.00000000
Si      -1.33109175      -1.35757603       1.38325433       0.00000000
Si       1.37889964      -1.35928648      -1.33593216       0.00000000
Si      -1.36939117       1.34887717      -1.36367777       0.00000000
Si      -2.66599275      -2.73460232       0.03816115       0.00000000
Si      -0.00860112       2.70801704       2.70553250       0.00000000
Si       2.71536383       2.69827562      -0.02223150       0.00000000
Si      -0.02329470       2.67779909      -2.74501238       0.00000000
Si      -2.71876844       0.00356751       2.70678704       0.00000000
Si       2.70798446      -0.00645084       2.71909897       0.00000000
