10
Lattice="16.290000149 0.0 0.0 0.0 16.290000149 0.0 0.0 0.0 29.1751946751" Properties=species:S:1:pos:R:3:initial_magmoms:R:1 pbc="T T T"
Si       2.23199066      -0.50751495       0.32320281       0.00000000
Si      -1.04976019       0.67421867       2.06790862       0.00000000
Si      -0.06169023       2.05819265      -1.29374483       0.00000000
Si      -0.65190952      -1.76684600      -1.58634286       0.00000000
Si      -2.36599220       1.97991105      -0.93252675       0.00000000
H       -0.65231677      -2.91563310       1.52761319       0.00000000
Si       2.79251328      -1.53927469      -1.68816429       0.00000000
Si      -3.11847618       1.39690172       1.22211973       0.00000000
Si       3.47680731       1.27659030      -0.51902671       0.00000000
Si       1.16660836      -3.22533858      -1.75404188       0.00000000
