10
Lattice="16.290000149 0.0 0.0 0.0 16.290000149 0.0 0.0 0.0 29.1751946751" Properties=species:S:1:pos:R:3:initial_magmoms:R:1 pbc="T T T"
Si       1.36115169       1.34974054      -1.35302883       0.00000000
Si       1.37046957      -1.34371324       1.35431254       0.00000000
Si      -1.33896306       1.36089919       1.37467682       0.00000000
Si      -1.34653956      -1.37862271      -1.35203687       0.00000000
Si      -2.68873783      -0.05137866       2.67997503       0.00000000
Si       2.67347410      -2.70192458      -0.05887554       0.00000000
Si      -0.02768323       2.69904125      -2.68309678       0.00000000
Si      -2.68984555      -0.02076975      -2.72020763       0.00000000
Si       2.67956656      -0.01319490      -2.74369366       0.00000000
Si       2.72442922       0.03761361       2.70462807       0.00000000
