10
Lattice="16.290000149 0.0 0.0 0.0 16.290000149 0.0 0.0 0.0 29.1751946751" Properties=species:S:1:pos:R:3:initial_magmoms:R:1 pbc="T T T"
Si       0.92989837      -1.04356999       1.83406944       0.00000000
Si      -0.77053330      -2.04985217      -0.87219244       0.00000000
Si      -1.29518533       1.49887549       1.32280333       0.00000000
Si       1.99060544       0.59855977      -1.16805809       0.00000000
H       -0.25313031       2.67703346      -1.42039435       0.00000000
Si      -0.16241130      -1.54417798      -3.05543061       0.00000000
Si       2.26360955      -2.59028921       0.67695204       0.00000000
Si      -1.00846504      -2.07216947       2.73718759       0.00000000
Si       2.00081927       0.71516359       2.90118136       0.00000000
Si       0.29952423       2.31339179       2.88329696       0.00000000
