10
Lattice="16.290000149 0.0 0.0 0.0 16.290000149 0.0 0.0 0.0 29.1751946751" Properties=species:S:1:pos:R:3:initial_magmoms:R:1 pbc="T T T"
Si       0.88316236      -0.85074526       0.88934746       0.00000000
H       -1.89946289      -0.42427305      -1.23764093       0.00000000
Si       0.89780707       0.98886817      -2.06715007       0.00000000
Si      -0.99100216      -0.35126127      -2.45392562       0.00000000
Si      -0.71822611       2.51771726      -0.98915580       0.00000000
Si      -1.45130869       2.17393799       1.27189261       0.00000000
Si       1.91764253      -2.33611634      -0.58224936       0.00000000
Si      -0.51271146      -2.08448471       2.31438067       0.00000000
Si       2.78076819       0.45010899       1.52069867       0.00000000
Si       2.83172331      -0.50075460      -1.75129941       0.00000000
