10
Lattice="16.290000149 0.0 0.0 0.0 16.290000149 0.0 0.0 0.0 29.1751946751" Properties=species:S:1:pos:R:3:initial_magmoms:R:1 pbc="T T T"
Si      -1.37137692       1.23849613      -1.44364698       0.00000000
Si       1.19641906      -1.40110291      -1.47708176       0.00000000
Si      -1.36367012      -1.42946380       1.29990080       0.00000000
Si       1.43047378       1.41087691       1.31874797       0.00000000
Si      -0.07082892       2.74695015       2.56767971       0.00000000
Si       2.54368352      -2.76543930      -0.17335901       0.00000000
Si       0.05968656      -2.64466523       2.68864007       0.00000000
Si      -2.77606038       2.55637343      -0.12895436       0.00000000
Si       2.72891711       2.64360638      -0.18686712       0.00000000
Si      -0.04199562       2.63603153      -2.78742727       0.00000000
