10
Lattice="16.290000149 0.0 0.0 0.0 16.290000149 0.0 0.0 0.0 29.1751946751" Properties=species:S:1:pos:R:3:initial_magmoms:R:1 pbc="T T T"
Si       0.97016725      -1.44891406      -1.51970672       0.00000000
Si      -1.68909383       0.93198349      -1.31107490       0.00000000
Si      -1.26623800      -1.48129858       1.32680033       0.00000000
Si       1.50280138       1.28871820       1.28542990       0.00000000
H       -1.15479811       1.18960984      -2.69800530       0.00000000
Si      -0.92398510      -2.95440330      -1.83666603       0.00000000
Si      -2.64023435      -2.50991435      -0.30852768       0.00000000
Si      -2.57217473      -0.05479956       2.62938233       0.00000000
H        0.11604996       2.94892986      -2.26659170       0.00000000
Si       0.16185744       2.64445346       2.63032731       0.00000000
