10
Lattice="16.290000149 0.0 0.0 0.0 16.290000149 0.0 0.0 0.0 29.1751946751" Properties=species:S:1:pos:R:3:initial_magmoms:R:1 pbc="T T T"
Si       1.34675947       1.33291297       1.38904561       0.00000000
Si       1.33025770      -1.44044326      -1.31418206       0.00000000
Si      -1.34141635      -1.41819112       1.36019134       0.00000000
Si      -1.42744384       1.36681246      -1.33480017       0.00000000
H        0.48938418       1.65449387      -3.20928600       0.00000000
Si      -2.76521124       2.52107300       0.22229456       0.00000000
Si       2.64981287       2.68675859      -0.04529741       0.00000000
Si      -2.73621504      -0.07977213      -2.70508029       0.00000000
Si      -0.06535548      -2.76175776      -2.67978539       0.00000000
Si       2.69509907      -0.05183478       2.75117710       0.00000000
