10
Lattice="16.290000149 0.0 0.0 0.0 16.290000149 0.0 0.0 0.0 29.1751946751" Properties=species:S:1:pos:R:3:initial_magmoms:R:1 pbc="T T T"
Si      -0.27599496       0.81932185       2.15417967       0.00000000
Si       1.64962316      -1.65527579       0.09595722       0.00000000
Si      -1.76881709      -1.00274725      -1.15708822       0.00000000
Si       0.91820215       1.72946045      -1.28099527       0.00000000
Si      -0.43196845      -2.30946590      -2.57937896       0.00000000
Si      -2.54440028       1.30616479       2.03304427       0.00000000
Si       2.44612271       0.46584513      -2.49430409       0.00000000
Si       3.47615571      -0.35746776      -0.53731956       0.00000000
Si       1.00958905       2.80627995       2.27114303       0.00000000
Si       2.11553345      -2.07870176       2.30764120       0.00000000
