10
Lattice="16.290000149 0.0 0.0 0.0 16.290000149 0.0 0.0 0.0 29.1751946751" Properties=species:S:1:pos:R:3:initial_magmoms:R:1 pbc="T T T"
Si      -1.36073629      -1.36236529       1.34372194       0.00000000
Si       1.35459496       1.35327547       1.36043933       0.00000000
Si       1.36940257      -1.37883448      -1.32254075       0.00000000
Si      -1.38360745       1.33827238      -1.35022801       0.00000000
Si      -0.01984122       2.69977430      -2.68006256       0.00000000
Si       2.71705799      -0.04093677       2.66527073       0.00000000
Si      -0.00395847      -2.70542693      -2.68630605       0.00000000
Si      -2.73533538       0.00184077       2.67656153       0.00000000
Si      -0.01037673      -2.73945675       2.68554749       0.00000000
Si       2.72955242       2.69602760       0.01829285       0.00000000
