10
Lattice="16.290000149 0.0 0.0 0.0 16.290000149 0.0 0.0 0.0 29.1751946751" Properties=species:S:1:pos:R:3:initial_magmoms:R:1 pbc="T T T"
H       -0.56449738       0.45209637       0.28326197       0.00000000
H       -1.69463243      -1.22841262       1.23629887       0.00000000
Si       2.07575327       0.60233905       1.22153623       0.00000000
Si       0.96855454      -0.73972891      -2.30813718       0.00000000
Si      -2.43138026      -1.31136130      -0.07883138       0.00000000
Si      -0.86617189      -2.11325285      -1.63550306       0.00000000
Si      -0.75566053       1.30886893      -2.41238015       0.00000000
Si       0.30516057       2.16010289       1.84856951       0.00000000
Si       2.77666311       0.29488158      -1.09348630       0.00000000
Si       1.32818887      -1.27267255       2.50903757       0.00000000
