10
Lattice="16.290000149 0.0 0.0 0.0 16.290000149 0.0 0.0 0.0 29.1751946751" Properties=species:S:1:pos:R:3:initial_magmoms:R:1 pbc="T T T"
Si      -1.32831268       1.35931906      -1.36528241       0.00000000
Si       1.31242015       1.43086474       1.31953570       0.00000000
Si      -1.34137400      -1.36756180       1.36504901       0.00000000
Si       1.37854126      -1.34573320      -1.35687995       0.00000000
Si       2.65968461       0.06652836       2.62325845       0.00000000
Si      -2.64780920       2.69496875       0.04262496       0.00000000
Si       2.69068448       2.68589522      -0.10441802       0.00000000
Si      -2.66971925      -0.00180819      -2.71953660       0.00000000
Si      -2.61211472      -0.00576666       2.78783573       0.00000000
Si       0.02373453      -2.71397918      -2.69415418       0.00000000
