10
Lattice="16.290000149 0.0 0.0 0.0 16.290000149 0.0 0.0 0.0 29.1751946751" Properties=species:S:1:pos:R:3:initial_magmoms:R:1 pbc="T T T"
Si      -1.33648048      -1.35985663       1.36464056       0.00000000
Si       1.32325300      -1.37072206      -1.37394744       0.00000000
Si      -1.35938422       1.32154255      -1.39568296       0.00000000
Si       1.34327341       1.32872644       1.40729469       0.00000000
Si       2.69819417       2.67348224       0.01362482       0.00000000
Si       2.62645301      -2.75102265       0.00180886       0.00000000
Si      -2.73039950      -0.01211976       2.67787442       0.00000000
Si      -2.73843048       2.67437819      -0.07562210       0.00000000
Si       2.67628412      -0.02329470      -2.74853674       0.00000000
Si      -0.00605988       2.69998607      -2.73567048       0.00000000
