10
Lattice="16.290000149 0.0 0.0 0.0 16.290000149 0.0 0.0 0.0 29.1751946751" Properties=species:S:1:pos:R:3:initial_magmoms:R:1 pbc="T T T"
Si      -1.34977477      -1.41227785       1.30529821       0.00000000
Si       1.33896306      -1.36089919      -1.37467682       0.00000000
Si      -1.43707288       1.35130438      -1.28703454       0.00000000
Si       1.38111995       1.35957970       1.35606305       0.00000000
Si      -2.58330245      -0.03694572       2.71909897       0.00000000
Si      -0.05845017       2.67783167      -2.67714504       0.00000000
Si       0.00269430       2.75675379       2.65281293       0.00000000
Si       2.70943263      -2.70461243      -0.02036429       0.00000000
Si      -0.02463213      -2.78427054       2.63810863       0.00000000
Si       2.71704006       2.71024877      -0.01461677       0.00000000
