10
Lattice="16.290000149 0.0 0.0 0.0 16.290000149 0.0 0.0 0.0 29.1751946751" Properties=species:S:1:pos:R:3:initial_magmoms:R:1 pbc="T T T"
Si       1.06758145      -1.46510632      -1.47360991       0.00000000
Si      -1.30702816      -1.35255871       1.39083988       0.00000000
Si      -1.43519788       1.36231642      -1.28236651       0.00000000
Si       1.76163320       0.74119501       1.43792864       0.00000000
Si       2.15694263      -1.19392669       2.78853593       0.00000000
Si       0.29087424      -2.65626371       2.60762055       0.00000000
Si       2.45636912      -0.14354748      -2.81590226       0.00000000
Si      -2.69016320       0.12970098       2.60339015       0.00000000
Si       2.26733996      -3.02651913      -0.24772658       0.00000000
Si      -0.13675455       2.59504589      -2.78798160       0.00000000
