10
Lattice="16.290000149 0.0 0.0 0.0 16.290000149 0.0 0.0 0.0 29.1751946751" Properties=species:S:1:pos:R:3:initial_magmoms:R:1 pbc="T T T"
Si      -1.37051029       1.36066462      -1.31361314       0.00000000
Si      -1.38743560      -1.35928648       1.30433543       0.00000000
Si       1.32398605      -1.35180937      -1.38474226       0.00000000
Si       1.35560494       1.37164571       1.33838288       0.00000000
Si      -0.00526167      -2.70537806       2.64035512       0.00000000
Si      -0.02432097       2.69078222      -2.66054727       0.00000000
Si       2.67392207       0.04311768      -2.69559835       0.00000000
Si       2.73792549       0.01124010       2.65990250       0.00000000
Si      -2.70534548       0.01127268       2.69330810       0.00000000
Si      -0.00430056       2.72916147       2.67796194       0.00000000
