10
Lattice="16.290000149 0.0 0.0 0.0 16.290000149 0.0 0.0 0.0 29.1751946751" Properties=species:S:1:pos:R:3:initial_magmoms:R:1 pbc="T T T"
Si       2.20444427      -0.38092536       0.80293053       0.00000000
Si       0.04932612       2.29475603       0.66554454       0.00000000
Si       0.14230944      -0.41787108      -2.35750161       0.00000000
Si      -1.52238196      -1.37351743       1.28073270       0.00000000
H       -2.16683066      -0.21813939      -1.44070029       0.00000000
H       -0.87747715       2.45315999      -1.86870039       0.00000000
Si       0.48812985       2.04675707       2.94879265       0.00000000
Si      -0.72213571       1.65889217      -3.14569866       0.00000000
Si       2.12110463       0.31117158       3.03283442       0.00000000
Si       2.44237601      -0.35860806      -2.80644950       0.00000000
