10
Lattice="16.290000149 0.0 0.0 0.0 16.290000149 0.0 0.0 0.0 29.1751946751" Properties=species:S:1:pos:R:3:initial_magmoms:R:1 pbc="T T T"
Si       1.33356457       1.33522615      -1.39366987       0.00000000
Si      -1.19840644       1.47263230       1.42973042       0.00000000
Si       1.47245311      -1.20935332       1.45502531       0.00000000
Si      -1.56582739      -1.12238101      -1.46978796       0.00000000
H        1.83057248      -3.01708722      -0.79654117       0.00000000
Si      -2.52462422       0.09032805       2.80612566       0.00000000
Si      -0.16658154       2.64531683      -2.69234532       0.00000000
Si       2.92638450       2.46386252      -0.05327391       0.00000000
Si      -2.59693553       2.89694847       0.20428471       0.00000000
H        2.02719278       3.20689830       0.92552470       0.00000000
