10
Lattice="16.290000149 0.0 0.0 0.0 16.290000149 0.0 0.0 0.0 29.1751946751" Properties=species:S:1:pos:R:3:initial_magmoms:R:1 pbc="T T T"
Si      -1.37857384      -1.36388026      -1.30491893       0.00000000
Si      -1.38531790       1.31440753       1.35833871       0.00000000
Si       1.32941062      -1.36684504       1.37561043       0.00000000
Si       1.32480055       1.38689803      -1.38296258       0.00000000
Si      -2.69560406       0.02756268      -2.64665696       0.00000000
Si      -0.01459584       2.67579542       2.68557667       0.00000000
Si      -0.05126463      -2.72279207      -2.67116412       0.00000000
Si       2.68863194      -0.00177561       2.70634941       0.00000000
Si       2.74984977       0.02660157      -2.65330890       0.00000000
Si       2.69482214      -2.71396289       0.02564500       0.00000000
