10
Lattice="16.290000149 0.0 0.0 0.0 16.290000149 0.0 0.0 0.0 29.1751946751" Properties=species:S:1:pos:R:3:initial_magmoms:R:1 pbc="T T T"
Si      -1.37904625       1.35283564       1.32006086       0.00000000
Si      -1.37569051      -1.36267480      -1.33003877       0.00000000
Si       1.35332434       1.37844352      -1.33998752       0.00000000
Si       1.35938422      -1.32154255       1.39568296       0.00000000
Si      -0.02075346       2.66043395       2.70947115       0.00000000
Si       2.68263722      -2.69226461       0.02173552       0.00000000
Si      -0.01451439      -2.71309952      -2.68181307       0.00000000
Si       2.70003494       0.03060891      -2.70637858       0.00000000
Si      -2.71722089       0.02133990       2.70004757       0.00000000
Si      -2.73033434      -0.00895950      -2.69701335       0.00000000
