10
Lattice="16.290000149 0.0 0.0 0.0 16.290000149 0.0 0.0 0.0 29.1751946751" Properties=species:S:1:pos:R:3:initial_magmoms:R:1 pbc="T T T"
Si       0.64712026      -1.10843677       0.98670508       0.00000000
Si      -1.07709481       0.94016107       0.88246211       0.00000000
Si      -1.61456707       1.30776121      -1.32814239       0.00000000
Si       1.72155980      -2.12802788      -0.84628487       0.00000000
H        1.89257222       2.23239791      -0.05563710       0.00000000
Si      -1.18760617      -2.48196071       1.65933920       0.00000000
Si       0.25444980       2.08699337      -2.49299121       0.00000000
Si       2.45522882      -0.07382628       2.20135596       0.00000000
H       -0.32143428      -0.36870786       3.29484226       0.00000000
Si       0.03091842       2.86343994       1.70838270       0.00000000
