10
Lattice="16.290000149 0.0 0.0 0.0 16.290000149 0.0 0.0 0.0 29.1751946751" Properties=species:S:1:pos:R:3:initial_magmoms:R:1 pbc="T T T"
Si       1.34670897       1.34763913      -1.36869591       0.00000000
Si       1.35109098      -1.35918874       1.35976830       0.00000000
Si      -1.33035091       1.34947990       1.39127751       0.00000000
Si      -1.36430543      -1.32986674      -1.37928650       0.00000000
Si       2.67739022       2.69329088       0.04606763       0.00000000
Si      -2.70485841      -2.68304447       0.00641854       0.00000000
Si      -2.69879853       2.70615998       0.05035639       0.00000000
Si       2.69104124       0.00355122       2.72522576       0.00000000
Si       2.69863238      -0.02161683      -2.72741390       0.00000000
Si      -2.67837087      -0.00402363       2.74871179       0.00000000
