10
Lattice="16.290000149 0.0 0.0 0.0 16.290000149 0.0 0.0 0.0 29.1751946751" Properties=species:S:1:pos:R:3:initial_magmoms:R:1 pbc="T T T"
Si      -1.39939246      -1.22927599      -1.41709756       0.00000000
Si       1.30976488      -1.35790183       1.40714881       0.00000000
Si      -1.07443954       1.01959111       1.83298996       0.00000000
Si       1.28946754       1.46018674      -1.33123496       0.00000000
H       -1.72155980       2.12802788       0.84628487       0.00000000
Si       2.38205414       0.34872003       2.78167976       0.00000000
Si       0.73366903       2.05420160       3.04764084       0.00000000
Si      -0.00547344      -2.57701286      -2.73033142       0.00000000
Si       2.67428045       0.11157021      -2.68767728       0.00000000
Si      -0.12070890      -3.15604092       2.14277217       0.00000000
