10
Lattice="10.86 0.0 0.0 0.0 10.86 0.0 0.0 0.0 10.86" Properties=species:S:1:pos:R:3:initial_magmoms:R:1 pbc="T T T"
Si       1.19509956       1.70391228      -1.12745262       0.00000000
Si      -1.68594984      -1.18160058      -1.43062038       0.00000000
Si      -1.27393230       1.62437364       1.47980532       0.00000000
Si      -0.21058626      -2.36750172       2.53957842       0.00000000
Si      -0.19247178      -2.26158414      -2.64943818       0.00000000
Si      -2.90747178      -2.26158414       0.06556182       0.00000000
Si       2.52252822       0.45341586      -2.64943818       0.00000000
Si      -2.90747178       0.45341586      -2.64943818       0.00000000
Si      -2.90747178       0.45341586       2.78056182       0.00000000
Si       2.52252822       3.16841586       0.06556182       0.00000000
