10
Lattice="10.86 0.0 0.0 0.0 10.86 0.0 0.0 0.0 10.86" Properties=species:S:1:pos:R:3:initial_magmoms:R:1 pbc="T T T"
Si       1.57921776       1.63388700       1.07481420       0.00000000
Si       1.57921776      -1.08111300      -1.64018580       0.00000000
Si      -1.13578224       1.63388700      -1.64018580       0.00000000
Si      -2.11586466      -0.18330594       1.81112220       0.00000000
Si       0.39527142      -2.29178580       2.37110724       0.00000000
Si      -2.65763748      -2.40025548      -0.14538282       0.00000000
Si       2.93671776       0.27638700       2.43231420       0.00000000
Si      -2.54008884       2.84419056      -0.29552232       0.00000000
Si       2.93671776      -2.43861300      -0.28268580       0.00000000
Si       0.22171776      -2.43861300      -2.99768580       0.00000000
