10
Lattice="16.28999089631971 0.0 0.0 0.0 16.28999089631971 0.0 0.0 0.0 34.46413024517268" Properties=species:S:1:pos:R:3:initial_magmoms:R:1 pbc="T T T"
Si      -1.26960743       1.42861834       1.34918874       0.00000000
Si       1.35934511       1.37391652      -1.35954319       0.00000000
Si       1.45469048      -1.31985394       1.34313339       0.00000000
Si      -1.90429841      -0.89123079      -1.29872943       0.00000000
Si      -2.61775154       0.05198139       2.72357766       0.00000000
Si       0.09934294      -2.66428393       2.72330195       0.00000000
Si      -0.96584387      -1.92810625      -3.16798050       0.00000000
Si       2.59704302       0.07551392      -2.86018119       0.00000000
Si       2.79304430      -2.66232913      -0.22001913       0.00000000
Si       0.09542682       2.76614137       2.72361213       0.00000000
