10
Lattice="16.28999089631971 0.0 0.0 0.0 16.28999089631971 0.0 0.0 0.0 34.46413024517268" Properties=species:S:1:pos:R:3:initial_magmoms:R:1 pbc="T T T"
Si      -2.10670751      -0.38701782       0.74573527       0.00000000
Si      -0.24812928      -0.00302994      -2.31719709       0.00000000
Si       1.45617939       1.61660235       1.05353459       0.00000000
Si      -0.97742932      -2.42536923       0.37738244       0.00000000
Si       0.60395175      -2.76232788       2.12754088       0.00000000
Si       0.02746494      -2.24984448      -3.00954739       0.00000000
Si       3.09614256       0.35403303       2.25940071       0.00000000
Si       0.21848148       2.91500495       2.55417258       0.00000000
Si       1.10234430       1.46400903      -3.48036214       0.00000000
Si      -3.04516205       0.64985764       2.61498634       0.00000000
