10
Lattice="16.28999089631971 0.0 0.0 0.0 16.28999089631971 0.0 0.0 0.0 34.46413024517268" Properties=species:S:1:pos:R:3:initial_magmoms:R:1 pbc="T T T"
Si      -1.58593317      -0.95128713      -1.48375056       0.00000000
Si      -1.07547720       1.62020340       1.40324231       0.00000000
Si       1.90775774      -1.56136392       0.18269446       0.00000000
Si       1.13137634       1.84485879      -1.50208549       0.00000000
Si       1.11415781       2.56215636       1.82218851       0.00000000
Si      -0.15989775      -2.17934951      -2.86131708       0.00000000
Si       1.10721827      -3.36164675      -1.21713590       0.00000000
Si       3.45444437      -0.32610951       1.42560954       0.00000000
Si      -2.70761370      -2.68864169      -0.10601172       0.00000000
Si       2.55885275       0.54998298      -2.84442965       0.00000000
