10
Lattice="16.28999089631971 0.0 0.0 0.0 16.28999089631971 0.0 0.0 0.0 34.46413024517268" Properties=species:S:1:pos:R:3:initial_magmoms:R:1 pbc="T T T"
Si       1.35640314       1.35601381      -1.35716374       0.00000000
Si       1.35747828      -1.35750246       1.35757731       0.00000000
Si      -1.35786924       1.35787087       1.35826660       0.00000000
Si      -1.35782037      -1.35891136      -1.35747392       0.00000000
Si      -0.00074934       2.71489303       2.71443088       0.00000000
Si      -2.71461447       2.71471384       0.00034464       0.00000000
Si      -2.71487511      -2.71466890       0.00000000       0.00000000
Si       2.71507059      -2.71471777       0.00041357       0.00000000
Si       2.71552671       2.71466497      -0.00003446       0.00000000
Si      -2.71274112      -0.00066952      -2.71773944       0.00000000
