10
Lattice="16.28999089631971 0.0 0.0 0.0 16.28999089631971 0.0 0.0 0.0 34.46413024517268" Properties=species:S:1:pos:R:3:initial_magmoms:R:1 pbc="T T T"
Si      -0.50145507       1.67581746       1.52176452       0.00000000
Si      -1.54668663      -1.23525441      -1.24291509       0.00000000
Si       2.01880341       0.89489115      -1.13659319       0.00000000
Si       0.80060463      -1.94195696       1.44373769       0.00000000
Si       0.39219804      -0.40928625      -2.67465925       0.00000000
Si       1.53088533       2.52491742       0.59171498       0.00000000
Si       2.83446000      -0.70416783       0.79557043       0.00000000
Si      -0.26730261      -3.59881028      -0.00754765       0.00000000
Si      -2.34028656       2.88826587       0.39657897       0.00000000
Si      -3.45444437       0.32610951      -1.42560954       0.00000000
