10
Lattice="16.28999089631971 0.0 0.0 0.0 16.28999089631971 0.0 0.0 0.0 34.46413024517268" Properties=species:S:1:pos:R:3:initial_magmoms:R:1 pbc="T T T"
Si       1.34413677       0.49453182      -1.88201828       0.00000000
Si       1.31430978      -1.38466629       1.40848086       0.00000000
Si      -2.00828007      -0.78455898      -1.22537284       0.00000000
Si      -1.58926869       1.43314533       1.29885040       0.00000000
Si      -3.37473414       1.42428357      -0.42466725       0.00000000
Si      -0.18265977       1.51975926      -3.38458627       0.00000000
Si       1.88322174      -1.65400515      -2.75602911       0.00000000
Si       2.43340020       0.22046886       2.81428528       0.00000000
Si      -2.37214980       1.50053706      -2.49237836       0.00000000
Si      -0.27012078      -2.40362697       2.88417513       0.00000000
