10
Lattice="16.28999089631971 0.0 0.0 0.0 16.28999089631971 0.0 0.0 0.0 34.46413024517268" Properties=species:S:1:pos:R:3:initial_magmoms:R:1 pbc="T T T"
Si      -1.35726651      -1.35576783      -1.35788749       0.00000000
Si       1.35650088       1.35780408      -1.35702589       0.00000000
Si       1.35674523      -1.35684297       1.35792195       0.00000000
Si      -1.35791811       1.35738054       1.35754285       0.00000000
Si       2.71386513       0.00017919       2.71408624       0.00000000
Si       2.71461447      -2.71471384      -0.00034464       0.00000000
Si      -2.71520417      -2.71447275      -0.00010339       0.00000000
Si      -0.00175932      -2.71594862       2.71408624       0.00000000
Si       0.00073305       2.71415835      -2.71598177       0.00000000
Si      -2.71537033       0.00224802       2.71480998       0.00000000
