10
Lattice="16.28999089631971 0.0 0.0 0.0 16.28999089631971 0.0 0.0 0.0 34.46413024517268" Properties=species:S:1:pos:R:3:initial_magmoms:R:1 pbc="T T T"
Si       1.35733167       1.35672894      -1.35709482       0.00000000
Si      -1.35656604       1.35754344       1.35712928       0.00000000
Si       1.35729909      -1.35738054       1.35778410       0.00000000
Si      -1.35839052      -1.35764118      -1.35692249       0.00000000
Si      -2.71417464       0.00043983       2.71463766       0.00000000
Si      -0.00068418       2.71580364       2.71356928       0.00000000
Si      -0.00102627      -2.71526607       2.71418963       0.00000000
Si       2.71456560       0.00001629       2.71515463       0.00000000
Si       2.71529865       2.71469592       0.00034464       0.00000000
Si      -2.71415835      -0.00128691      -2.71587837       0.00000000
