10
Lattice="16.28999089631971 0.0 0.0 0.0 16.28999089631971 0.0 0.0 0.0 34.46413024517268" Properties=species:S:1:pos:R:3:initial_magmoms:R:1 pbc="T T T"
Si       2.20910319      -0.70328817      -0.05124819       0.00000000
Si      -0.75248397       2.15430363       0.60212316       0.00000000
Si      -1.09006164      -1.48866165       1.47709898       0.00000000
Si      -0.84304008      -0.23993541      -2.20670503       0.00000000
Si       1.53306819      -2.83289616      -0.93828647       0.00000000
Si      -0.53836821      -3.40407243       0.10704565       0.00000000
Si      -3.06988308       1.54127835       0.33468136       0.00000000
Si       3.14665785       1.32844950      -0.99504892       0.00000000
Si      -3.00610773       0.68862717      -1.85117286       0.00000000
Si      -3.18308229      -0.34222032       1.83955844       0.00000000
