10
Lattice="16.28999089631971 0.0 0.0 0.0 16.28999089631971 0.0 0.0 0.0 34.46413024517268" Properties=species:S:1:pos:R:3:initial_magmoms:R:1 pbc="T T T"
Si      -0.63042300       0.04611699      -2.29372701       0.00000000
Si       1.20480840      -1.45168335       1.45824709       0.00000000
Si      -1.43154891       1.16403453       1.56680916       0.00000000
Si       2.08241586      -1.59707160      -0.82159086       0.00000000
Si      -2.24192754       2.72157030      -0.04980070       0.00000000
Si      -2.72344365       1.19255832      -1.93126755       0.00000000
Si       2.39168151      -0.06439437       2.99351953       0.00000000
Si      -0.28725786      -2.76617232       2.84765347       0.00000000
Si       3.63763845       0.14538825      -1.73130655       0.00000000
Si      -0.28975023       2.70389565       3.01804767       0.00000000
