10
Lattice="16.28999089631971 0.0 0.0 0.0 16.28999089631971 0.0 0.0 0.0 34.46413024517268" Properties=species:S:1:pos:R:3:initial_magmoms:R:1 pbc="T T T"
Si       1.35627282       1.35609363      -1.35723267       0.00000000
Si      -1.35855342      -1.35892809      -1.35630214       0.00000000
Si      -1.36081773       1.35806472       1.36181640       0.00000000
Si       1.36114353      -1.36563957       1.35781856       0.00000000
Si       2.71371852       2.71182888       0.00062035       0.00000000
Si       2.71337643      -0.00105885      -2.71367267       0.00000000
Si      -0.00135207       2.71388142      -2.71425856       0.00000000
Si      -2.71663117       2.71173114       0.00041357       0.00000000
Si       2.71311579      -2.71547784      -0.00044803       0.00000000
Si      -0.00174303      -2.71588509      -2.71394838       0.00000000
