10
Lattice="16.28999089631971 0.0 0.0 0.0 16.28999089631971 0.0 0.0 0.0 34.46413024517268" Properties=species:S:1:pos:R:3:initial_magmoms:R:1 pbc="T T T"
Si      -1.15351119      -1.19765709      -1.63446229       0.00000000
Si      -1.68153525       1.26327321       1.29640345       0.00000000
Si      -0.26024904      -2.13747606       1.26710892       0.00000000
Si       1.62113193       1.48098906      -1.54123677       0.00000000
Si       0.08136855      -1.39571091       3.50452151       0.00000000
Si      -2.34165492       0.32210217      -2.95640367       0.00000000
Si       0.39133467      -2.41253271      -2.95985009       0.00000000
Si       1.88491590       0.21058083       3.57062375       0.00000000
Si      -0.61362801       2.92012652       2.74768878       0.00000000
Si      -2.33295606      -3.33847260       0.79839649       0.00000000
