10
Lattice="16.28999089631971 0.0 0.0 0.0 16.28999089631971 0.0 0.0 0.0 34.46413024517268" Properties=species:S:1:pos:R:3:initial_magmoms:R:1 pbc="T T T"
Si       1.47404952      -1.20075219      -1.42426544       0.00000000
Si      -1.23738840       1.54336088      -1.40558587       0.00000000
Si       1.95483258       0.75650501       1.23698725       0.00000000
Si      -1.62113193      -1.48098906       1.54123677       0.00000000
Si       0.13338252      -2.53096101      -2.79904037       0.00000000
Si      -2.58751989       0.18549992      -2.79156165       0.00000000
Si      -2.77464312      -2.67864615      -0.09322552       0.00000000
Si       2.84084568      -2.63474460      -0.00523855       0.00000000
Si       1.47238794       0.99686722       3.49463030       0.00000000
Si       2.85293286       2.76117848      -0.04842213       0.00000000
