10
Lattice="16.28999089631971 0.0 0.0 0.0 16.28999089631971 0.0 0.0 0.0 34.46413024517268" Properties=species:S:1:pos:R:3:initial_magmoms:R:1 pbc="T T T"
Si       0.06377535      -0.85265118      -2.18585422       0.00000000
Si      -2.01438882       1.24510986      -0.40929624       0.00000000
Si       2.31739911       0.61302528       0.26744180       0.00000000
Si      -0.11319921      -1.88349867       1.50487709       0.00000000
Si       0.36831690      -0.35448669       3.38634394       0.00000000
Si       3.06988308      -1.54127835      -0.33468136       0.00000000
Si      -1.84976208      -2.35603899      -2.25130164       0.00000000
Si       1.97982144      -3.02994000       1.14241763       0.00000000
Si       2.52074718       0.93602340       2.70967483       0.00000000
Si       2.22684300      -1.78121376      -2.54138638       0.00000000
