10
Lattice="16.28999089631971 0.0 0.0 0.0 16.28999089631971 0.0 0.0 0.0 34.46413024517268" Properties=species:S:1:pos:R:3:initial_magmoms:R:1 pbc="T T T"
Si       0.24959538       2.32567443       0.44176147       0.00000000
Si      -0.20334807      -0.32299812      -2.44223303       0.00000000
Si       1.21106376      -0.07683993       2.20542986       0.00000000
Si      -2.15243028      -1.29051009       0.67666911       0.00000000
Si       2.87450082       0.07400547      -0.12586307       0.00000000
Si       0.28453743       3.28054929      -1.90121481       0.00000000
Si       1.01398734       1.49817501      -3.36015118       0.00000000
Si      -2.52074718      -0.93602340      -2.70967483       0.00000000
Si      -1.34205165      -2.84804586       2.29327897       0.00000000
Si      -1.46645838       2.91296397       2.14997704       0.00000000
