10
Lattice="16.28999089631971 0.0 0.0 0.0 16.28999089631971 0.0 0.0 0.0 34.46413024517268" Properties=species:S:1:pos:R:3:initial_magmoms:R:1 pbc="T T T"
Si       1.35040842       1.34717323      -1.37033249       0.00000000
Si       1.35192339      -1.35855387       1.35847338       0.00000000
Si      -1.36215351       1.35613273       1.35816320       0.00000000
Si      -1.36405944      -1.36654945      -1.37023600       0.00000000
Si       2.71047681      -2.71098247      -0.00192999       0.00000000
Si       2.71235016       2.71217749      -0.00468712       0.00000000
Si       2.71135647      -0.00002444       2.71536141       0.00000000
Si      -0.00302994       2.71478389       2.71529248       0.00000000
Si      -0.00348606      -2.71459885       2.71574052       0.00000000
Si      -2.71759554       2.71455583      -0.00192999       0.00000000
