10
Lattice="16.28999089631971 0.0 0.0 0.0 16.28999089631971 0.0 0.0 0.0 34.46413024517268" Properties=species:S:1:pos:R:3:initial_magmoms:R:1 pbc="T T T"
Si      -1.35040842      -1.34717323       1.37033249       0.00000000
Si       1.36194174       1.36500426       1.36564537       0.00000000
Si      -1.30316742       1.26806247      -1.51366545       0.00000000
Si       1.37205783      -1.38271638      -1.37412010       0.00000000
Si       2.31142068       0.50253021      -2.47397554       0.00000000
Si       0.60282774       2.15591634      -2.71189229       0.00000000
Si      -2.42225784      -0.33707268      -2.91946986       0.00000000
Si      -2.71446786      -2.71372267       0.00009650       0.00000000
Si       2.72201013      -2.70624625       0.01660483       0.00000000
Si      -2.70922248       2.72228706      -0.02677520       0.00000000
