10
Lattice="16.28999089631971 0.0 0.0 0.0 16.28999089631971 0.0 0.0 0.0 34.46413024517268" Properties=species:S:1:pos:R:3:initial_magmoms:R:1 pbc="T T T"
Si      -1.36889757       1.23543686       1.39969250       0.00000000
Si       1.33705062       1.37139320      -1.34809967       0.00000000
Si      -1.37639097      -1.34386111      -1.34661771       0.00000000
Si       1.26926793      -1.43608146       1.38507970       0.00000000
Si      -2.26699785      -0.76923661       2.68510189       0.00000000
Si       0.25138728       2.49983408       2.66273465       0.00000000
Si      -0.40742919      -2.46041295       2.76864299       0.00000000
Si       2.69418681       0.01521649      -2.70781376       0.00000000
Si       2.69146638      -2.71815333       0.01833493       0.00000000
Si      -0.02076975      -2.70220542      -2.70812394       0.00000000
