10
Lattice="16.28999089631971 0.0 0.0 0.0 16.28999089631971 0.0 0.0 0.0 34.46413024517268" Properties=species:S:1:pos:R:3:initial_magmoms:R:1 pbc="T T T"
Si      -0.98644095      -1.56995038       1.51404455       0.00000000
Si       2.26606932      -0.77380758      -0.03156916       0.00000000
Si       0.23358231       2.23959807       0.84874861       0.00000000
Si      -0.97829595      -0.42262776      -2.39953195       0.00000000
Si       0.69499656      -2.10268714      -2.54565994       0.00000000
Si       2.24678196      -2.70507993       1.28427207       0.00000000
Si      -3.05131248      -2.09309558       0.57610272       0.00000000
Si       2.83094136      -0.92748744      -2.27273834       0.00000000
Si      -0.73541205       3.63480399      -0.88252348       0.00000000
Si       2.63342511       2.67050115       0.76562108       0.00000000
