10
Lattice="16.28999089631971 0.0 0.0 0.0 16.28999089631971 0.0 0.0 0.0 34.46413024517268" Properties=species:S:1:pos:R:3:initial_magmoms:R:1 pbc="T T T"
Si       0.56487204      -0.15367986      -2.24116918       0.00000000
Si      -0.01928736      -1.93127235       1.31584123       0.00000000
Si       1.67505183       1.48173840       0.84495755       0.00000000
Si      -2.26606932       0.77380758       0.03156916       0.00000000
Si      -1.57107276      -1.32887956      -2.51409078       0.00000000
Si       1.27402461       2.12446035      -2.53287374       0.00000000
Si       0.36735579       3.44430873       0.79719024       0.00000000
Si      -3.25251027      -0.79614280       1.54561371       0.00000000
Si       0.67694724      -1.15591722       3.43914302       0.00000000
Si      -2.03248701       3.01340565       0.88031777       0.00000000
