10
Lattice="16.28999089631971 0.0 0.0 0.0 16.28999089631971 0.0 0.0 0.0 34.46413024517268" Properties=species:S:1:pos:R:3:initial_magmoms:R:1 pbc="T T T"
Si      -0.04248432      -0.58580469       2.24344381       0.00000000
Si       1.54803870       1.76230107      -0.37648637       0.00000000
Si       0.94727979      -1.72424763      -1.36371193       0.00000000
Si      -2.28639924       0.77504562      -0.00196446       0.00000000
Si       1.50513084       1.56667446      -2.73621222       0.00000000
Si      -0.58156929       1.56273228       3.11745464       0.00000000
Si      -1.79794359      -2.19698669       2.26636247       0.00000000
Si       0.91308708      -0.64011555      -3.46216507       0.00000000
Si      -2.10836583       2.58795972       1.61488665       0.00000000
Si       2.04296148      -1.36468660       2.94816674       0.00000000
