10
Lattice="16.28999089631971 0.0 0.0 0.0 16.28999089631971 0.0 0.0 0.0 34.46413024517268" Properties=species:S:1:pos:R:3:initial_magmoms:R:1 pbc="T T T"
Si       1.35648459      -1.35523026      -1.36016212       0.00000000
Si      -1.35913986       1.36028016      -1.35967963       0.00000000
Si       1.34506530       1.36238157       1.37363761       0.00000000
Si      -1.35920502      -1.34578206       1.39049058       0.00000000
Si       2.71412577      -2.71264338      -0.00065482       0.00000000
Si      -2.71867068      -2.70852201       0.00420463       0.00000000
Si      -0.00123804      -2.71223613      -2.71742926       0.00000000
Si       2.71401174       2.71671588       0.00065482       0.00000000
Si       2.71376739       0.00229689      -2.71760158       0.00000000
Si      -2.71640637       0.00288333      -2.71705015       0.00000000
