10
Lattice="16.28999089631971 0.0 0.0 0.0 16.28999089631971 0.0 0.0 0.0 34.46413024517268" Properties=species:S:1:pos:R:3:initial_magmoms:R:1 pbc="T T T"
Si      -0.23358231      -2.23959807      -0.84874861       0.00000000
Si      -0.96899436       1.39520592      -1.73127209       0.00000000
Si       2.39984280       0.43090308      -0.08312753       0.00000000
Si      -0.91531881       0.56811375       2.20225915       0.00000000
Si      -2.68369605       2.38891221      -0.41160534       0.00000000
Si      -1.88090856       2.69244378       1.74767702       0.00000000
Si       2.03248701      -3.01340565      -0.88031777       0.00000000
Si       2.78573661       1.18706859      -2.44581730       0.00000000
Si       0.82042956       2.42865981      -3.02726196       0.00000000
Si       3.70753884      -1.53166725      -0.03536022       0.00000000
