10
Lattice="16.28999089631971 0.0 0.0 0.0 16.28999089631971 0.0 0.0 0.0 34.46413024517268" Properties=species:S:1:pos:R:3:initial_magmoms:R:1 pbc="T T T"
Si      -1.34225073      -1.35104373       1.38623425       0.00000000
Si       1.37459451       1.36313091       1.38078892       0.00000000
Si       1.38855504      -1.29599982      -1.44213510       0.00000000
Si      -1.33809678       1.28920689      -1.61211574       0.00000000
Si       2.31080524       0.46244052      -2.69030395       0.00000000
Si       0.52198080       2.10398382      -2.99837898       0.00000000
Si      -2.68446528      -2.69475696       0.01118706       0.00000000
Si      -2.67270390       2.71037907       0.00125794       0.00000000
Si      -2.69637327       0.00285075       2.74298443       0.00000000
Si       2.73732631      -2.70552465       0.00344297       0.00000000
