10
Lattice="16.28999089631971 0.0 0.0 0.0 16.28999089631971 0.0 0.0 0.0 34.46413024517268" Properties=species:S:1:pos:R:3:initial_magmoms:R:1 pbc="T T T"
Si       1.35658233      -1.35739683       1.36305711       0.00000000
Si      -1.36119240       1.35922131       1.36291926       0.00000000
Si      -1.36972836      -1.36764324      -1.36519044       0.00000000
Si       1.38025170       1.35013149      -1.37866937       0.00000000
Si      -0.11316663       2.55718791      -2.73823871       0.00000000
Si       2.71070487      -2.71129131       0.00630694       0.00000000
Si      -2.71173114       2.71529865       0.00730640       0.00000000
Si      -2.71357191      -2.71433754       0.00351534       0.00000000
Si       2.71467963       2.71586880       0.00127517       0.00000000
Si       2.71322982       0.00097740       2.71970389       0.00000000
