10
Lattice="16.28999089631971 0.0 0.0 0.0 16.28999089631971 0.0 0.0 0.0 34.46413024517268" Properties=species:S:1:pos:R:3:initial_magmoms:R:1 pbc="T T T"
Si       1.35518139       1.35817875      -1.35712928       0.00000000
Si       1.35681039      -1.35685926       1.35685357       0.00000000
Si      -1.35759231       1.35695700       1.35661232       0.00000000
Si      -1.35796698      -1.35796698      -1.35743946       0.00000000
Si       0.00464265       2.71425609      -2.71274214       0.00000000
Si      -0.00236205       2.71422351       2.71422409       0.00000000
Si      -2.71598283       0.00110772       2.71322463       0.00000000
Si       2.71415835       2.71508688      -0.00006893       0.00000000
Si       2.71494027       0.00087966       2.71436195       0.00000000
Si      -0.00073305      -2.71467963       2.71480998       0.00000000
