10
Lattice="16.28999089631971 0.0 0.0 0.0 16.28999089631971 0.0 0.0 0.0 34.46413024517268" Properties=species:S:1:pos:R:3:initial_magmoms:R:1 pbc="T T T"
Si      -0.83800647      -1.87258437       1.14617422       0.00000000
Si       2.33769645      -0.18049320       0.22363787       0.00000000
Si      -0.44486361      -0.43955307      -2.30279108       0.00000000
Si      -1.31615055       1.92867084       0.54970318       0.00000000
Si       2.44402128      -2.35356291      -0.72946819       0.00000000
Si       0.32317731      -3.45624930      -0.25868791       0.00000000
Si      -3.09545838      -1.15895205       1.30570877       0.00000000
Si      -1.08287775       1.67648535      -3.04311547       0.00000000
Si      -2.79052587       1.00268208       2.17296463       0.00000000
Si       0.32151573       3.48291603       1.29443899       0.00000000
