10
Lattice="16.28999089631971 0.0 0.0 0.0 16.28999089631971 0.0 0.0 0.0 34.46413024517268" Properties=species:S:1:pos:R:3:initial_magmoms:R:1 pbc="T T T"
Si      -1.35766670      -1.35645364       1.35702589       0.00000000
Si       1.35726120      -1.35728769      -1.35743946       0.00000000
Si      -1.35765041       1.35777150      -1.35781856       0.00000000
Si       1.35709505       1.35943308       1.35747392       0.00000000
Si       0.00190730       2.71344159       2.71291446       0.00000000
Si       0.00000451      -2.71382280      -2.71453427       0.00000000
Si       2.71378163      -2.71460399       0.00027571       0.00000000
Si       2.71454726       2.71456560       0.00020678       0.00000000
Si      -0.00020389       2.71581993      -2.71329356       0.00000000
Si      -2.71532417      -0.00094482      -2.71401731       0.00000000
