10
Lattice="16.28999089631971 0.0 0.0 0.0 16.28999089631971 0.0 0.0 0.0 34.46413024517268" Properties=species:S:1:pos:R:3:initial_magmoms:R:1 pbc="T T T"
Si      -1.46978154      -0.12590541       1.92223794       0.00000000
Si       1.44756198      -1.92002085      -0.32086123       0.00000000
Si       1.56144537       1.85947092      -0.12799985       0.00000000
Si      -1.38777768      -0.08000019      -1.99561211       0.00000000
Si       1.01680551      -2.23316352      -2.68527421       0.00000000
Si       0.23297958      -0.23110623      -3.63400332       0.00000000
Si      -3.10744782      -1.68015060       1.17750213       0.00000000
Si       2.43616950       1.93406283       2.07770572       0.00000000
Si       0.54639918      -3.78931464       0.85143681       0.00000000
Si       0.48609360       3.89213290      -0.84830058       0.00000000
