10
Lattice="16.28999089631971 0.0 0.0 0.0 16.28999089631971 0.0 0.0 0.0 34.46413024517268" Properties=species:S:1:pos:R:3:initial_magmoms:R:1 pbc="T T T"
Si       1.04614380      -2.04584481       0.48625469       0.00000000
Si       0.31877901       0.66513699      -2.49554907       0.00000000
Si      -1.66343706      -0.15084540       2.33129293       0.00000000
Si      -2.87450082      -0.07400547       0.12586307       0.00000000
Si       3.10972842      -0.84659130       0.15129762       0.00000000
Si      -2.62490544       2.25166896       0.56762454       0.00000000
Si      -0.18075384       3.35499133       1.01572741       0.00000000
Si       1.33524243       2.25955332       2.63900923       0.00000000
Si      -3.07784889      -0.39700359      -2.31636995       0.00000000
Si       2.05614009       2.31655203      -2.49765138       0.00000000
