10
Lattice="16.28999089631971 0.0 0.0 0.0 16.28999089631971 0.0 0.0 0.0 34.46413024517268" Properties=species:S:1:pos:R:3:initial_magmoms:R:1 pbc="T T T"
Si       1.86048090       1.09252143       0.93818756       0.00000000
Si      -0.93936285      -1.88524659       1.09985544       0.00000000
Si      -1.70859294       1.65338613      -0.23791675       0.00000000
Si      -0.92778066       1.86500952      -2.56317845       0.00000000
Si       0.42005394       2.23922340       2.47143209       0.00000000
Si      -2.31142068      -0.50253021       2.47397554       0.00000000
Si       2.47746465      -2.79188446      -0.18030816       0.00000000
Si      -3.61458810       0.76553226       0.96031010       0.00000000
Si      -0.93799449       3.57130557       1.06156232       0.00000000
Si       3.11215563      -0.47203533       2.46761001       0.00000000
