10
Lattice="16.28999089631971 0.0 0.0 0.0 16.28999089631971 0.0 0.0 0.0 34.46413024517268" Properties=species:S:1:pos:R:3:initial_magmoms:R:1 pbc="T T T"
Si      -1.35342207      -1.36010418      -1.35141857       0.00000000
Si      -1.35681039       1.35567172       1.36129944       0.00000000
Si       1.35851829      -1.35720626       1.36078248       0.00000000
Si       1.34814411       1.37663695      -1.37438893       0.00000000
Si       2.61775154      -0.05198139      -2.72357766       0.00000000
Si      -2.71349046       2.71114633      -0.00237803       0.00000000
Si       2.71317836       2.71415998       0.00003446       0.00000000
Si      -2.71536381      -2.71201363       0.00037911       0.00000000
Si       0.00086337       2.71438804       2.71749819       0.00000000
Si      -2.71448415      -0.00105559       2.71767051       0.00000000
