10
Lattice="16.28999089631971 0.0 0.0 0.0 16.28999089631971 0.0 0.0 0.0 34.46413024517268" Properties=species:S:1:pos:R:3:initial_magmoms:R:1 pbc="T T T"
Si      -1.30769604       1.96257033      -0.04776731       0.00000000
Si       0.57855564      -0.89047656       2.13918976       0.00000000
Si      -1.67505183      -1.48173840      -0.84495755       0.00000000
Si       1.47046572       0.32757561      -1.87898543       0.00000000
Si      -0.40102722       0.64272195      -3.37783129       0.00000000
Si      -1.11017979      -1.63541826      -3.08612673       0.00000000
Si      -0.92180223       2.71873584      -2.41045708       0.00000000
Si      -0.99810459      -2.63765562       2.59418546       0.00000000
Si      -1.69433919      -3.41301075       0.47088367       0.00000000
Si       2.64536568      -1.57547106      -2.39677481       0.00000000
