10
Lattice="16.28999089631971 0.0 0.0 0.0 16.28999089631971 0.0 0.0 0.0 34.46413024517268" Properties=species:S:1:pos:R:3:initial_magmoms:R:1 pbc="T T T"
Si       1.40006034      -1.55062948      -1.10174993       0.00000000
Si      -2.29426731       0.37969384      -0.65892007       0.00000000
Si      -0.39338721      -0.98303701       2.24885468       0.00000000
Si       1.21000491       2.05484341      -0.71781931       0.00000000
Si       3.47310945      -0.40635242      -0.75938307       0.00000000
Si       0.52323480       3.39726973       1.05184584       0.00000000
Si       0.52533621      -1.62522139      -3.30745550       0.00000000
Si      -2.32846002       1.46382592      -2.75737321       0.00000000
Si      -1.19858562       0.73925486       3.65295860       0.00000000
Si      -3.24154710       2.10394147       0.70479186       0.00000000
