10
Lattice="16.28999089631971 0.0 0.0 0.0 16.28999089631971 0.0 0.0 0.0 34.46413024517268" Properties=species:S:1:pos:R:3:initial_magmoms:R:1 pbc="T T T"
Si       0.68677011      -1.34242632      -1.76966515       0.00000000
Si       1.32256881       1.96429707       0.14488728       0.00000000
Si      -2.21674320       0.46897281      -0.72354035       0.00000000
Si       0.01778868      -1.03131990       2.14808151       0.00000000
Si      -2.28586167       2.53179180       0.48401452       0.00000000
Si      -0.52323480      -3.39726973      -1.05184584       0.00000000
Si      -0.02080233      -0.00676035      -3.61070555       0.00000000
Si       2.10945726      -2.28266883       2.00353887       0.00000000
Si      -0.22959126       3.73630698       0.32199855       0.00000000
Si      -2.25965106       0.27334620      -3.08326621       0.00000000
