10
Lattice="16.28999089631971 0.0 0.0 0.0 16.28999089631971 0.0 0.0 0.0 34.46413024517268" Properties=species:S:1:pos:R:3:initial_magmoms:R:1 pbc="T T T"
Si       1.84958338       0.92023839       1.08269126       0.00000000
Si       1.30913494      -1.32339960      -1.42619543       0.00000000
Si      -1.37758684       1.38820122      -1.42312813       0.00000000
Si      -1.23394162      -1.34985456       1.59865404       0.00000000
Si       0.52544421       2.33986302       2.37988738       0.00000000
Si       3.42347431      -0.85351455       1.24229473       0.00000000
Si      -2.70465169      -2.61622287       0.00227463       0.00000000
Si       2.62057279      -2.72508894      -0.06524064       0.00000000
Si      -0.03539426      -2.66629833      -2.78277329       0.00000000
Si       2.67631717       0.04922838      -2.77687992       0.00000000
