10
Lattice="16.28999089631971 0.0 0.0 0.0 16.28999089631971 0.0 0.0 0.0 34.46413024517268" Properties=species:S:1:pos:R:3:initial_magmoms:R:1 pbc="T T T"
Si      -0.37424646      -1.53379538       1.79751218       0.00000000
Si       1.66847623       1.70553042       0.18555498       0.00000000
Si      -2.09166858       1.25134893       0.14454264       0.00000000
Si       1.20793608      -1.57131874      -1.43650022       0.00000000
Si      -1.41224526      -3.25108394       0.57079524       0.00000000
Si      -2.10945726       2.28266883      -2.00353887       0.00000000
Si       1.66396227      -2.31628229       2.45329602       0.00000000
Si      -3.02607927      -2.09763791      -0.80653003       0.00000000
Si       0.29817216      -3.70744829      -0.96165316       0.00000000
Si       3.32012096       1.29318165      -1.49712265       0.00000000
