10
Lattice="16.28999089631971 0.0 0.0 0.0 16.28999089631971 0.0 0.0 0.0 34.46413024517268" Properties=species:S:1:pos:R:3:initial_magmoms:R:1 pbc="T T T"
Si       0.15573240      -0.42463143      -2.26122731       0.00000000
Si      -0.52077501       2.07601389       0.96737421       0.00000000
Si      -0.70915257      -2.27814021       0.29170456       0.00000000
Si       1.87149294      -0.31514634       1.49884586       0.00000000
Si       0.40102722      -0.64272195       3.37783129       0.00000000
Si      -1.27402461      -2.12446035       2.53287374       0.00000000
Si       1.46005641       3.29680278       0.15129762       0.00000000
Si       1.41874497      -3.37030978      -0.13961427       0.00000000
Si      -0.90666882       1.31984838       3.33006398       0.00000000
Si       3.04639290      -2.21819301       0.98105648       0.00000000
