10
Lattice="16.28999089631971 0.0 0.0 0.0 16.28999089631971 0.0 0.0 0.0 34.46413024517268" Properties=species:S:1:pos:R:3:initial_magmoms:R:1 pbc="T T T"
Si      -0.96523137       0.73098117       1.97989646       0.00000000
Si       0.65083437      -2.22860232      -0.25169168       0.00000000
Si      -1.60544466      -0.02507031      -1.71982999       0.00000000
Si       1.48658697       1.77341085      -0.79333026       0.00000000
Si      -1.41739290       2.80637604       0.86418855       0.00000000
Si       3.40958564       0.47812779      -0.81866141       0.00000000
Si       0.83494395       0.62942931       3.46392274       0.00000000
Si      -2.41722423       2.21542371      -1.73461511       0.00000000
Si       1.34171838      -2.44467288      -2.52415431       0.00000000
Si       3.49351172      -0.87141726       1.16064916       0.00000000
