10
Lattice="16.28999089631971 0.0 0.0 0.0 16.28999089631971 0.0 0.0 0.0 34.46413024517268" Properties=species:S:1:pos:R:3:initial_magmoms:R:1 pbc="T T T"
Si       1.42747641      -1.29487581      -1.34234416       0.00000000
Si      -1.31143785       1.40168934      -1.36095480       0.00000000
Si       0.80290152       1.87157439       1.30753537       0.00000000
Si      -1.13137634      -1.84485879       1.50208549       0.00000000
Si      -0.01721853       0.71729757       3.32427400       0.00000000
Si      -2.20685354      -0.22465539       2.90532780       0.00000000
Si       2.71526607      -2.58025455       0.25303579       0.00000000
Si      -2.62057279       2.72508894       0.06524064       0.00000000
Si       0.05649372      -2.65717593      -2.71505123       0.00000000
Si      -2.65596705       0.05879061      -2.71753265       0.00000000
