10
Lattice="16.28999089631971 0.0 0.0 0.0 16.28999089631971 0.0 0.0 0.0 34.46413024517268" Properties=species:S:1:pos:R:3:initial_magmoms:R:1 pbc="T T T"
Si      -0.67399875       1.53556056      -1.66420485       0.00000000
Si       2.37127014      -0.24469209      -0.30297434       0.00000000
Si      -0.47460915       1.18389204       2.12044126       0.00000000
Si      -1.30007232      -2.21473953      -0.09529337       0.00000000
Si      -1.31028615      -0.50844348       3.52944740       0.00000000
Si      -3.26376666      -1.49784921      -1.26004377       0.00000000
Si      -0.95938326       0.42674913      -3.71651049       0.00000000
Si       2.97560538      -1.76581971       1.72541318       0.00000000
Si       2.53348596      -1.58970852      -2.47411236       0.00000000
Si      -2.84991921       2.34287667      -1.22282249       0.00000000
