10
Lattice="16.28999089631971 0.0 0.0 0.0 16.28999089631971 0.0 0.0 0.0 34.46413024517268" Properties=species:S:1:pos:R:3:initial_magmoms:R:1 pbc="T T T"
Si      -1.49341833       1.20705642      -1.35956934       0.00000000
Si       1.33442793       1.36573731       1.37994455       0.00000000
Si      -1.38025170      -1.35013149       1.37866937       0.00000000
Si       1.33460712      -1.42117218      -1.61337368       0.00000000
Si      -2.34756819      -0.53488215      -2.77117407       0.00000000
Si      -0.53413281      -2.38071834      -2.80894678       0.00000000
Si       2.67270390      -2.71037907      -0.00125794       0.00000000
Si       2.69405494       2.71072116      -0.01374775       0.00000000
Si       2.68939903       0.00871515       2.74072703       0.00000000
Si      -0.02366937      -2.70752832       2.74172649       0.00000000
