10
Lattice="16.28999089631971 0.0 0.0 0.0 16.28999089631971 0.0 0.0 0.0 34.46413024517268" Properties=species:S:1:pos:R:3:initial_magmoms:R:1 pbc="T T T"
Si       1.35570267       1.35873261       1.35664678       0.00000000
Si      -1.35698958      -1.35666378       1.35761178       0.00000000
Si      -1.35777150       1.35754344      -1.35681910       0.00000000
Si       1.35767376      -1.35760860      -1.35709482       0.00000000
Si      -0.00009774       2.71529865       2.71236303       0.00000000
Si       2.71409467       0.00026064      -2.71474106       0.00000000
Si       0.00000000       2.71448415      -2.71470659       0.00000000
Si      -2.71511946      -2.71440270       0.00010339       0.00000000
Si      -2.71464705       2.71500543       0.00027571       0.00000000
Si       0.00102627      -2.71598283      -2.71374160       0.00000000
