10
Lattice="16.28999089631971 0.0 0.0 0.0 16.28999089631971 0.0 0.0 0.0 34.46413024517268" Properties=species:S:1:pos:R:3:initial_magmoms:R:1 pbc="T T T"
Si      -1.61088552      -1.02239298      -1.34548040       0.00000000
Si      -1.16983377       0.19161927       2.02690556       0.00000000
Si       1.11109384       1.77857478      -1.14913814       0.00000000
Si       1.60832866      -1.45075482       1.16209666       0.00000000
Si       2.42452934       0.34028181      -2.60083704       0.00000000
Si      -0.29470239      -2.40241662      -2.64091885       0.00000000
Si       0.24959538       1.80631665       3.29415234       0.00000000
Si       3.18401801       0.44356041       1.99802460       0.00000000
Si      -3.21432651      -2.06866710      -0.00058589       0.00000000
Si      -2.26233891      -2.08026558       2.41183565       0.00000000
