10
Lattice="16.28999089631971 0.0 0.0 0.0 16.28999089631971 0.0 0.0 0.0 34.46413024517268" Properties=species:S:1:pos:R:3:initial_magmoms:R:1 pbc="T T T"
Si      -0.40355217       1.66363254       1.56315596       0.00000000
Si       2.13433209      -0.93408489       0.15226261       0.00000000
Si      -0.08392608       1.34954505      -1.97931057       0.00000000
Si      -1.23826643      -2.09552931       0.11631650       0.00000000
Si       0.03784167      -0.63130266      -3.26585727       0.00000000
Si       1.87667316      -1.84375107      -2.14067172       0.00000000
Si      -2.84267735      -1.35718506      -1.41234085       0.00000000
Si      -3.49351172       0.87141726      -1.16064916       0.00000000
Si       1.13410980       3.47768694       0.98677753       0.00000000
Si      -2.65856777       1.50084657       2.30327358       0.00000000
