10
Lattice="16.28999089631971 0.0 0.0 0.0 16.28999089631971 0.0 0.0 0.0 34.46413024517268" Properties=species:S:1:pos:R:3:initial_magmoms:R:1 pbc="T T T"
Si      -0.28538451      -1.10881143      -2.05230564       0.00000000
Si      -2.17592046       0.80731611       0.44138236       0.00000000
Si       0.67399875      -1.53556056       1.66420485       0.00000000
Si       0.91240290       2.14547445      -0.46154389       0.00000000
Si       0.07692138       0.67368924      -3.67980617       0.00000000
Si       3.04526889      -1.78025265       1.36123051       0.00000000
Si      -2.34165492      -2.31332661      -1.89028967       0.00000000
Si       3.22048413       1.85297121      -0.80715038       0.00000000
Si       0.19938960      -0.35166852       3.78464611       0.00000000
Si      -1.98241155       2.70216891       1.80661072       0.00000000
