10
Lattice="16.28999089631971 0.0 0.0 0.0 16.28999089631971 0.0 0.0 0.0 34.46413024517268" Properties=species:S:1:pos:R:3:initial_magmoms:R:1 pbc="T T T"
Si      -1.35777150      -1.35694071       1.35788749       0.00000000
Si       1.35741312       1.35866745       1.35771517       0.00000000
Si       1.35912357      -1.35720135      -1.36081694       0.00000000
Si      -1.35847197       1.36200690      -1.35988641       0.00000000
Si       0.00346977       2.71391635      -2.71168409       0.00000000
Si       2.71409467      -2.71422351      -0.00003446       0.00000000
Si       0.00000000      -2.71448415       2.71470659       0.00000000
Si      -2.71464705       0.00052128       2.71498231       0.00000000
Si       2.71502723       0.00127062       2.71501677       0.00000000
Si       0.00021177       2.71566422       2.71487891       0.00000000
