10
Lattice="16.28999089631971 0.0 0.0 0.0 16.28999089631971 0.0 0.0 0.0 34.46413024517268" Properties=species:S:1:pos:R:3:initial_magmoms:R:1 pbc="T T T"
Si       0.83246787       0.07768701      -2.17713479       0.00000000
Si      -1.32747210      -1.92236661       0.00379106       0.00000000
Si      -1.77059268       1.42551739       0.66619201       0.00000000
Si       1.63398474      -0.06659352       1.73423600       0.00000000
Si       0.00099369       0.16821054       3.50979452       0.00000000
Si      -2.59460604      -1.59223347      -1.97224542       0.00000000
Si      -0.58699386      -1.27698939      -3.41326044       0.00000000
Si      -1.07435808       2.20087252       2.78949380       0.00000000
Si       2.68293042      -1.38486177      -2.16369377       0.00000000
Si      -2.94822936      -1.77126057       1.64218226       0.00000000
