10
Lattice="16.28999089631971 0.0 0.0 0.0 16.28999089631971 0.0 0.0 0.0 34.46413024517268" Properties=species:S:1:pos:R:3:initial_magmoms:R:1 pbc="T T T"
Si      -1.63398474       0.06659352      -1.73423600       0.00000000
Si       1.72750563       1.67436669      -0.18155714       0.00000000
Si       1.28956527      -2.04102297       0.07047919       0.00000000
Si      -1.63299105       0.23480406       1.77555852       0.00000000
Si       3.51232667       0.52631361       0.96144638       0.00000000
Si      -2.70834282       2.26746604       1.05525779       0.00000000
Si       1.10288187      -2.87357229      -2.13426139       0.00000000
Si       0.62742564      -3.26140461       1.96314688       0.00000000
Si      -3.40457742       1.49211091      -1.06804399       0.00000000
Si      -2.96145684      -1.85577309      -1.73044495       0.00000000
