10
Lattice="16.28999089631971 0.0 0.0 0.0 16.28999089631971 0.0 0.0 0.0 34.46413024517268" Properties=species:S:1:pos:R:3:initial_magmoms:R:1 pbc="T T T"
Si      -1.80374283       0.96242949       1.11694862       0.00000000
Si       0.47492259      -1.94626404       1.31522087       0.00000000
Si       1.99315385       1.31385366       0.41908406       0.00000000
Si      -1.03345389      -0.67846221      -2.12302607       0.00000000
Si      -0.01814706      -2.76363108      -1.86430370       0.00000000
Si      -0.91062729      -3.48439842       0.17759376       0.00000000
Si       2.29609898      -2.48031540      -1.36981209       0.00000000
Si       2.77624673      -2.22268905       0.90823373       0.00000000
Si      -0.88834257       1.85012046       3.09057261       0.00000000
Si       1.61993040       3.30009336      -0.72236857       0.00000000
