10
Lattice="16.28999089631971 0.0 0.0 0.0 16.28999089631971 0.0 0.0 0.0 34.46413024517268" Properties=species:S:1:pos:R:3:initial_magmoms:R:1 pbc="T T T"
Si       1.00258434       0.07625349      -2.06771111       0.00000000
Si      -2.12782423      -1.25022492       0.25241543       0.00000000
Si       1.78546545       0.00886176       1.72351765       0.00000000
Si       1.36645407      -2.20884255      -0.80070559       0.00000000
Si      -1.12616028      -2.49608412       2.03752052       0.00000000
Si       0.34451721      -1.15323426       3.35811232       0.00000000
Si       3.37473414      -1.42428357       0.42466725       0.00000000
Si       0.11153763      -3.79448671       0.53688252       0.00000000
Si      -3.51937142       0.34458237       1.53617054       0.00000000
Si      -0.48177675      -0.26226900      -3.82390078       0.00000000
