10
Lattice="16.28999089631971 0.0 0.0 0.0 16.28999089631971 0.0 0.0 0.0 34.46413024517268" Properties=species:S:1:pos:R:3:initial_magmoms:R:1 pbc="T T T"
Si      -1.35789939       1.35596331       1.36119605       0.00000000
Si       1.35802399      -1.35992178       1.36074801       0.00000000
Si       1.35523840       1.36858806      -1.35753251       0.00000000
Si      -1.37459451      -1.36313091      -1.38078892       0.00000000
Si       2.69212613       0.00886176      -2.71358651       0.00000000
Si      -2.71287048       2.71298547       0.00041357       0.00000000
Si       2.71299361       2.71352304       0.00444588       0.00000000
Si      -2.71684524      -2.71417464       0.00544534       0.00000000
Si       0.00076074       2.71318095       2.71884229       0.00000000
Si      -2.71432029      -0.00190593       2.71884229       0.00000000
