10
Lattice="16.28999089631971 0.0 0.0 0.0 16.28999089631971 0.0 0.0 0.0 34.46413024517268" Properties=species:S:1:pos:R:3:initial_magmoms:R:1 pbc="T T T"
Si       1.35714429      -1.35734796      -1.35757731       0.00000000
Si      -1.35752298       1.35733167      -1.35761178       0.00000000
Si       1.35803047       1.35812988       1.35799088       0.00000000
Si      -1.35788136      -1.35930276       1.35716374       0.00000000
Si       0.00000500      -2.71410948      -2.71346588       0.00000000
Si      -2.71417047      -0.00104256      -2.71425856       0.00000000
Si       0.00211619      -2.71648782       2.71274214       0.00000000
Si       2.71475615      -2.71536381       0.00003446       0.00000000
Si      -2.71519674       2.71494027      -0.00051696       0.00000000
Si      -2.71495239      -2.71526607      -0.00037911       0.00000000
