10
Lattice="16.28999089631971 0.0 0.0 0.0 16.28999089631971 0.0 0.0 0.0 34.46413024517268" Properties=species:S:1:pos:R:3:initial_magmoms:R:1 pbc="T T T"
Si      -1.34074825      -1.37427327       1.35271787       0.00000000
Si       1.35735861      -1.35415512      -1.36167855       0.00000000
Si      -1.36016593       1.36138788      -1.36353961       0.00000000
Si       1.37848348       1.36842516       1.39279967       0.00000000
Si      -2.65693138       0.00575037       2.64815632       0.00000000
Si       2.71315576      -2.71324611      -0.00103392       0.00000000
Si      -2.71537990      -2.71313208      -0.00179214       0.00000000
Si      -0.00067186      -2.71228500      -2.71966943       0.00000000
Si       2.71227610       2.71976211      -0.00144749       0.00000000
Si      -2.71596634       2.71795392      -0.00782336       0.00000000
