10
Lattice="16.28999089631971 0.0 0.0 0.0 16.28999089631971 0.0 0.0 0.0 34.46413024517268" Properties=species:S:1:pos:R:3:initial_magmoms:R:1 pbc="T T T"
Si      -1.92378384       1.04080068       0.85891553       0.00000000
Si       2.07270702       1.20099654       0.46871243       0.00000000
Si       0.32974218      -1.98174366       1.39938233       0.00000000
Si      -1.06893351      -0.39607506      -2.23937704       0.00000000
Si      -2.17533402      -2.27313918      -1.27420854       0.00000000
Si       1.17944487       2.14081551      -2.43285878       0.00000000
Si      -3.49947319      -0.85351455       0.02298759       0.00000000
Si       3.51800469      -0.59380308       1.11253721       0.00000000
Si      -1.02037302       3.20183208       1.73613153       0.00000000
Si       1.52114391      -3.56289993       0.11548936       0.00000000
