10
Lattice="16.28999089631971 0.0 0.0 0.0 16.28999089631971 0.0 0.0 0.0 34.46413024517268" Properties=species:S:1:pos:R:3:initial_magmoms:R:1 pbc="T T T"
Si       1.78882445      -1.64154330       0.30807503       0.00000000
Si      -1.86007758      -0.81477693       1.38626324       0.00000000
Si       0.92455687       1.86316875       1.45833812       0.00000000
Si       0.11741669      -0.98080461      -2.60555863       0.00000000
Si      -0.52198080      -2.10398382       2.99837898       0.00000000
Si       2.20785212       0.62773515       3.02163539       0.00000000
Si       0.86657424      -3.39998364       1.55624387       0.00000000
Si       2.50007843       3.04795674      -0.12961967       0.00000000
Si       0.91869736       3.38491539      -1.87977811       0.00000000
Si       3.54473984      -0.73199115       1.66558139       0.00000000
