10
Lattice="16.28999089631971 0.0 0.0 0.0 16.28999089631971 0.0 0.0 0.0 34.46413024517268" Properties=species:S:1:pos:R:3:initial_magmoms:R:1 pbc="T T T"
Si       1.18814373      -1.51975926       1.32194138       0.00000000
Si      -1.34078103      -1.37171574      -1.37939312       0.00000000
Si       1.37526696       1.34438681      -1.37639474       0.00000000
Si      -1.41980382       1.50444407       1.61760932       0.00000000
Si       2.34165492      -0.32210217       2.95640367       0.00000000
Si      -2.68691984       2.68674132      -0.02657186       0.00000000
Si      -2.67457365      -2.72305269       0.01485405       0.00000000
Si       2.72539845       2.70224777       0.00958103       0.00000000
Si      -2.69659447      -0.01804932      -2.74079595       0.00000000
Si       0.01718595       2.69753508      -2.74103720       0.00000000
