10
Lattice="16.28999089631971 0.0 0.0 0.0 16.28999089631971 0.0 0.0 0.0 34.46413024517268" Properties=species:S:1:pos:R:3:initial_magmoms:R:1 pbc="T T T"
Si      -1.87497967       1.47574109      -0.26089361       0.00000000
Si       1.93985230       0.80273603      -1.37201779       0.00000000
Si      -0.62835303      -1.98646776      -1.52307416       0.00000000
Si       0.16302543      -0.27911286       2.61300289       0.00000000
Si       2.34798196      -1.16045073       2.50130458       0.00000000
Si       0.67273627       1.98503328      -3.01619897       0.00000000
Si      -0.75329914       3.21309566      -1.63863245       0.00000000
Si      -2.05425112      -0.73523286      -3.00423991       0.00000000
Si       2.74039177       2.60301887       0.02781257       0.00000000
Si      -1.48985149      -1.95872589       2.92021632       0.00000000
