10
Lattice="16.290000149 0.0 0.0 0.0 16.290000149 0.0 0.0 0.0 29.1751946751" Properties=species:S:1:pos:R:3:initial_magmoms:R:1 pbc="T T T"
Si       1.03016332       1.10977255      -0.21254129       0.00000000
H       -0.52181757       1.54048015       1.81706030       0.00000000
Si      -2.21956139      -0.78871294      -1.12849653       0.00000000
Si      -0.97358815       0.25570413       2.47968732       0.00000000
Si       1.03905766      -1.10912095       2.40208130       0.00000000
Si      -0.54082800      -2.46505169      -1.37438507       0.00000000
Si      -0.18171495      -2.69905754       0.98787209       0.00000000
Si       2.19529418       0.94973959       1.80728661       0.00000000
Si       2.51889340       0.03414384      -1.63661172       0.00000000
Si      -0.23117139       2.75006154      -1.36922106       0.00000000
