10
Lattice="16.290000149 0.0 0.0 0.0 16.290000149 0.0 0.0 0.0 29.1751946751" Properties=species:S:1:pos:R:3:initial_magmoms:R:1 pbc="T T T"
Si       0.43854309      -0.24791751       2.28344592       0.00000000
Si      -1.71836696       1.63061272       0.10371782       0.00000000
Si      -0.04939128      -2.29413701      -0.66636145       0.00000000
Si       1.87001057       0.89668306      -1.27696910       0.00000000
H       -0.92219320       0.16356789      -2.54075100       0.00000000
Si       2.15480864      -2.67546962       0.13744434       0.00000000
Si      -0.32382891       3.36888606      -0.81179979       0.00000000
Si       2.07163190      -1.98337268       2.36736282       0.00000000
Si       3.46434546       1.70991245       0.28410805       0.00000000
Si      -3.77585913       0.62214769      -0.61933103       0.00000000
