10
Lattice="16.290000149 0.0 0.0 0.0 16.290000149 0.0 0.0 0.0 29.1751946751" Properties=species:S:1:pos:R:3:initial_magmoms:R:1 pbc="T T T"
Si       0.29729250      -0.82937278      -2.15464648       0.00000000
Si      -1.82058671       1.44928873       0.15789615       0.00000000
Si       1.63492958       1.67154950       0.05552040       0.00000000
Si       0.23170896      -1.53169984       1.81930679       0.00000000
H       -0.90023428      -1.47509209       2.82380874       0.00000000
Si       1.07150734       2.70451469       2.06577883       0.00000000
Si       2.29210076      -0.83862550       2.72963121       0.00000000
Si      -3.64242774       0.14098995       0.78510449       0.00000000
Si       1.41519376       0.87368158      -3.34762019       0.00000000
H       -1.81972334       0.29352951       3.27199808       0.00000000
