10
Lattice="16.290000149 0.0 0.0 0.0 16.290000149 0.0 0.0 0.0 29.1751946751" Properties=species:S:1:pos:R:3:initial_magmoms:R:1 pbc="T T T"
Si       1.38710980      -1.33856560      -1.33415248       0.00000000
Si      -1.29674917       1.30886893      -1.45709675       0.00000000
Si       1.38693061       1.35804844       1.33651567       0.00000000
Si      -1.35246097      -1.40931307       1.33062228       0.00000000
Si      -2.72852615       0.08913888       2.43455329       0.00000000
H       -1.81553681       1.03744495       3.14861618       0.00000000
Si      -2.65574243       2.68724729      -0.19926658       0.00000000
Si       2.71319726      -0.01244556       2.67098907       0.00000000
Si       0.02217069      -2.67859730      -2.70661199       0.00000000
Si      -2.71531496      -2.70694190      -0.05770854       0.00000000
