10
Lattice="16.290000149 0.0 0.0 0.0 16.290000149 0.0 0.0 0.0 29.1751946751" Properties=species:S:1:pos:R:3:initial_magmoms:R:1 pbc="T T T"
Si       1.37101528      -1.34573320      -1.33817865       0.00000000
Si       1.37842723       1.33481890       1.34415957       0.00000000
Si      -1.35060391      -1.36290286       1.35717171       0.00000000
Si      -1.34597755       1.35935164      -1.36837498       0.00000000
Si      -0.00244350       2.69905754       2.65497189       0.00000000
Si      -0.01466100      -2.69607647      -2.66252827       0.00000000
Si      -2.72451881      -0.00630423       2.68957367       0.00000000
Si       2.74168848       0.01280394      -2.67568628       0.00000000
Si      -2.69276960       0.00231318      -2.73065235       0.00000000
Si       2.73507474       2.69099399      -0.01257451       0.00000000
