10
Lattice="16.290000149 0.0 0.0 0.0 16.290000149 0.0 0.0 0.0 29.1751946751" Properties=species:S:1:pos:R:3:initial_magmoms:R:1 pbc="T T T"
Si       1.43107814      -1.21427290       1.38337103       0.00000000
Si      -1.43666235       1.24675516       1.36668282       0.00000000
Si      -1.35433318      -1.41297832      -1.31413829       0.00000000
Si       1.36886663       1.42332247      -1.30150543       0.00000000
H       -1.18510403      -1.45217206       3.06062380       0.00000000
Si      -0.04699665      -2.41706135       2.77143927       0.00000000
Si       2.55842760      -2.65847915      -0.07670159       0.00000000
Si      -0.01397193       2.68337027       2.53479926       0.00000000
Si       2.57010753       0.02956635      -2.78173811       0.00000000
Si      -2.72997434       2.65836512       0.00475556       0.00000000
