10
Lattice="16.290000149 0.0 0.0 0.0 16.290000149 0.0 0.0 0.0 29.1751946751" Properties=species:S:1:pos:R:3:initial_magmoms:R:1 pbc="T T T"
Si       1.38999313       1.34504902       1.27556577       0.00000000
Si       1.25809300      -1.40082598      -1.36487687       0.00000000
Si      -1.31481478       1.26368047      -1.47278133       0.00000000
Si      -1.41097465      -1.40439349       1.25773972       0.00000000
Si      -2.17228781      -0.67258153      -2.51376978       0.00000000
Si      -0.46705059      -2.34113366      -2.64066613       0.00000000
Si      -0.03474657       2.70534548       2.54611632       0.00000000
Si       2.71992520      -0.06379164       2.58646562       0.00000000
Si       2.57950523      -0.07501545      -2.73044374       0.00000000
Si       2.68548797       2.65945655      -0.19361534       0.00000000
