10
Lattice="16.290000149 0.0 0.0 0.0 16.290000149 0.0 0.0 0.0 29.1751946751" Properties=species:S:1:pos:R:3:initial_magmoms:R:1 pbc="T T T"
Si      -1.82184104      -1.30829878       0.62720834       0.00000000
Si       1.82058671      -1.44928873      -0.15789615       0.00000000
Si      -1.02330523       0.81197506      -1.96392823       0.00000000
Si       0.65977759       1.76199158       1.58357122       0.00000000
H        0.00086337      -1.15575922       3.11410193       0.00000000
Si      -2.55195884       2.07502022      -0.74936488       0.00000000
Si       3.45551628       0.22226076      -0.10237576       0.00000000
Si      -3.47337012       0.34469640       0.53078432       0.00000000
Si      -1.35597961      -1.73092655       2.83886314       0.00000000
Si       2.89209405       1.25522596       1.90788268       0.00000000
