10
Lattice="16.290000149 0.0 0.0 0.0 16.290000149 0.0 0.0 0.0 29.1751946751" Properties=species:S:1:pos:R:3:initial_magmoms:R:1 pbc="T T T"
Si       1.13810738      -0.96488929      -0.28918453       0.00000000
Si      -1.88858931       1.63634680      -0.26359788       0.00000000
H       -1.15109214      -1.80636554       1.92885965       0.00000000
Si      -1.52947626       1.40234095       2.09865928       0.00000000
Si      -0.17852227      -2.66566304      -1.42622939       0.00000000
Si       2.42873314      -0.81106282       1.73604078       0.00000000
Si       2.61618217       0.23789916      -1.67725277       0.00000000
Si      -0.25155833       2.69892722      -1.69394098       0.00000000
Si      -1.08203882      -0.73124182       2.98984478       0.00000000
Si      -2.95762057      -0.05422941      -1.64863190       0.00000000
