10
Lattice="16.290000149 0.0 0.0 0.0 16.290000149 0.0 0.0 0.0 29.1751946751" Properties=species:S:1:pos:R:3:initial_magmoms:R:1 pbc="T T T"
Si       1.42473970      -1.36029646      -1.27055055       0.00000000
Si       1.35672895       1.34944732       1.35469181       0.00000000
Si      -1.32496345      -1.38702835       1.38255413       0.00000000
Si      -1.33965703       1.33643161      -1.42191146       0.00000000
Si       0.03474657      -2.70534548      -2.54611632       0.00000000
Si      -2.68617215       2.61565274       0.03859878       0.00000000
Si       2.69684210       2.70283682      -0.03107158       0.00000000
Si       2.70348842      -0.03054375       2.70941280       0.00000000
Si       0.01220121       2.68047065       2.74063026       0.00000000
Si      -2.71160084      -0.06980265      -2.73434301       0.00000000
