10
Lattice="16.290000149 0.0 0.0 0.0 16.290000149 0.0 0.0 0.0 29.1751946751" Properties=species:S:1:pos:R:3:initial_magmoms:R:1 pbc="T T T"
Si       1.43617528      -1.19933497      -1.30191389       0.00000000
Si      -1.27563733       1.49771890      -1.22133200       0.00000000
Si       1.47859444       1.04715379       1.45569634       0.00000000
Si      -1.11939994      -1.42690627       1.55340407       0.00000000
H        2.08150364      -2.03815595      -0.21968922       0.00000000
Si      -1.99044254       0.36874044       2.82383792       0.00000000
Si       2.46770696      -0.80764192       2.35426316       0.00000000
Si      -0.12235419       1.84287143       2.98284273       0.00000000
Si      -0.00276930      -2.53460999      -2.50734541       0.00000000
Si       0.70845211      -2.30141864       2.69400830       0.00000000
