10
Lattice="16.290000149 0.0 0.0 0.0 16.290000149 0.0 0.0 0.0 29.1751946751" Properties=species:S:1:pos:R:3:initial_magmoms:R:1 pbc="T T T"
Si       1.92137294      -1.05302471       0.77740224       0.00000000
Si      -1.25476984      -1.31461767      -1.47288053       0.00000000
Si       1.16450695       1.43710544      -1.50552757       0.00000000
Si      -0.97673212       0.40242979       2.15237081       0.00000000
H       -1.88103890       1.97190615       0.65822157       0.00000000
Si       0.04787631       2.54480916       2.55522190       0.00000000
Si      -2.60045417      -2.60441101      -0.10030432       0.00000000
Si       3.66898044      -0.73684883      -0.71560918       0.00000000
Si       2.68785002       0.12286407      -2.70369447       0.00000000
Si       2.60345153       2.77238046      -0.30009605       0.00000000
