10
Lattice="16.290000149 0.0 0.0 0.0 16.290000149 0.0 0.0 0.0 29.1751946751" Properties=species:S:1:pos:R:3:initial_magmoms:R:1 pbc="T T T"
Si       1.41542182       1.39753540       1.16823315       0.00000000
Si       1.41739291      -1.32574537      -1.29216937       0.00000000
Si      -1.33447681       1.43293357      -1.27510188       0.00000000
Si      -1.35656605      -1.31738860       1.37534785       0.00000000
Si       0.03989421      -2.66664044      -2.62142042       0.00000000
Si      -2.68446170       0.07351677      -2.62544659       0.00000000
Si       2.75600739       0.12382029       2.56426621       0.00000000
Si      -2.59245578       0.11041362       2.75562631       0.00000000
Si      -2.72160290      -2.66320325       0.05079401       0.00000000
Si       0.05240493       2.79406083      -2.59262450       0.00000000
