10
Lattice="16.290000149 0.0 0.0 0.0 16.290000149 0.0 0.0 0.0 29.1751946751" Properties=species:S:1:pos:R:3:initial_magmoms:R:1 pbc="T T T"
Si       1.49247352      -1.26483706      -1.28140373       0.00000000
Si      -1.34508160       1.41103981      -1.37234281       0.00000000
Si      -1.39589011      -1.81916948       0.75003590       0.00000000
Si       1.06903126       1.69057622       1.38503402       0.00000000
H        2.95762057       0.05422941       1.64863190       0.00000000
Si      -2.47738322       2.53829153       0.37691434       0.00000000
Si       0.07133391      -2.54412335      -2.68435131       0.00000000
Si      -0.60970213       3.36691497       1.63092256       0.00000000
Si       2.77909830      -2.61143363       0.22240251       0.00000000
Si      -3.15117021      -0.84540214       2.01553915       0.00000000
