10
Lattice="16.290000149 0.0 0.0 0.0 16.290000149 0.0 0.0 0.0 29.1751946751" Properties=species:S:1:pos:R:3:initial_magmoms:R:1 pbc="T T T"
Si      -1.26297674       1.42752529       1.32704102       0.00000000
Si       1.63369479      -1.18346851       1.21365017       0.00000000
Si       0.68095784       1.76360429      -1.50710303       0.00000000
Si      -1.33374050      -1.97812730      -0.48582534       0.00000000
Si       0.29797831      -2.59002694       2.56683071       0.00000000
Si       0.16455018       0.85297699      -3.59989810       0.00000000
Si      -2.58438898       0.10171476       2.69260789       0.00000000
Si      -0.40262527      -2.79334081      -2.48105856       0.00000000
Si       0.24341984       2.81256627       2.49465711       0.00000000
Si      -2.40288579       2.92884429      -0.05636648       0.00000000
