10
Lattice="16.290000149 0.0 0.0 0.0 16.290000149 0.0 0.0 0.0 29.1751946751" Properties=species:S:1:pos:R:3:initial_magmoms:R:1 pbc="T T T"
Si      -1.34568433      -1.28979334       1.37257621       0.00000000
Si       1.25476984       1.31461767       1.47288053       0.00000000
Si       1.36653553      -1.35971002      -1.35057811       0.00000000
Si      -1.42750900       1.36199225      -1.29584545       0.00000000
Si       2.41927679       2.75172312      -0.03264704       0.00000000
Si       2.71103069       0.01321119      -2.66322847       0.00000000
Si      -0.04176756      -2.69415425      -2.69928901       0.00000000
Si      -0.12092067       2.70529661      -2.72216236       0.00000000
Si      -2.75478564      -2.68727987       0.07194603       0.00000000
Si      -2.76926745       0.01668096      -2.68484729       0.00000000
