10
Lattice="16.290000149 0.0 0.0 0.0 16.290000149 0.0 0.0 0.0 29.1751946751" Properties=species:S:1:pos:R:3:initial_magmoms:R:1 pbc="T T T"
Si      -0.91298935      -0.94830607      -0.71406289       0.00000000
H        1.31678587       0.86846878       0.68211605       0.00000000
H        0.66723841      -0.77932990       1.79617086       0.00000000
Si       1.96843475       1.69424147      -0.39456533       0.00000000
Si      -1.20951622       2.69786837       0.08090281       0.00000000
Si       0.46307583      -2.44675802      -1.81799391       0.00000000
Si      -0.92398510       1.82718416       2.32721775       0.00000000
Si      -2.25357491       0.32540904      -2.11009595       0.00000000
Si      -2.74763433      -1.60091605       0.53486884       0.00000000
Si       0.38887488       2.77985595      -1.71529722       0.00000000
