10
Lattice="16.290000149 0.0 0.0 0.0 16.290000149 0.0 0.0 0.0 29.1751946751" Properties=species:S:1:pos:R:3:initial_magmoms:R:1 pbc="T T T"
Si       2.23231646      -0.50676561       0.32431146       0.00000000
Si      -1.05070501       0.67184033       2.06566213       0.00000000
Si      -0.05936076       2.05682429      -1.29482431       0.00000000
Si      -0.65977759      -1.76199158      -1.58357122       0.00000000
Si      -2.36597591       1.97502080      -0.93687385       0.00000000
H       -0.65891422      -2.91775080       1.53053071       0.00000000
Si       2.79573870      -1.53973081      -1.68594697       0.00000000
Si      -3.11920923       1.39227699       1.21786015       0.00000000
Si       3.47739375       1.27657401      -0.52238186       0.00000000
Si       1.16080912      -3.21128031      -1.74146737       0.00000000
