10
Lattice="16.290000149 0.0 0.0 0.0 16.290000149 0.0 0.0 0.0 29.1751946751" Properties=species:S:1:pos:R:3:initial_magmoms:R:1 pbc="T T T"
Si       1.83239696       1.02195316      -0.94236462       0.00000000
Si       1.40623426      -1.36392913       1.25422703       0.00000000
Si      -1.32048370       1.48880658       1.20857369       0.00000000
Si      -1.30420999      -1.18418527      -1.55326869       0.00000000
Si       0.99869104       2.26629251      -2.65583548       0.00000000
Si      -2.67038714       0.09379782       2.51934808       0.00000000
Si      -2.62562222      -2.58742217      -0.21036191       0.00000000
Si       0.05049900      -2.70457985       2.56941271       0.00000000
Si       2.74422972      -2.51801048      -0.30273349       0.00000000
Si       2.82844902       0.09578520       2.47917384       0.00000000
