10
Lattice="16.290000149 0.0 0.0 0.0 16.290000149 0.0 0.0 0.0 29.1751946751" Properties=species:S:1:pos:R:3:initial_magmoms:R:1 pbc="T T T"
Si      -1.44472753       1.19376379       1.35779664       0.00000000
Si      -1.35881407      -1.34526079      -1.34211731       0.00000000
Si       1.27977499      -1.49504734       1.33816027       0.00000000
Si       1.31103550       1.36677988      -1.48560091       0.00000000
Si       2.16033095      -0.50813397      -2.60058933       0.00000000
Si       0.36181719      -2.10395126      -2.72096618       0.00000000
Si      -0.01808190       2.55324575       2.63736758       0.00000000
Si      -2.80246158       2.43566453      -0.09913731       0.00000000
Si       2.69273702      -0.19886832       2.68205522       0.00000000
Si      -2.79016752      -0.26805195       2.59164130       0.00000000
