10
Lattice="16.290000149 0.0 0.0 0.0 16.290000149 0.0 0.0 0.0 29.1751946751" Properties=species:S:1:pos:R:3:initial_magmoms:R:1 pbc="T T T"
Si      -1.61204212       0.17370027       1.67961596       0.00000000
Si       0.83442268       1.92927196      -1.01946883       0.00000000
Si       1.76881709      -1.15610131       1.03108055       0.00000000
Si      -1.56235762      -0.77947651      -1.59287810       0.00000000
H       -0.21219354       3.04269836      -1.00035908       0.00000000
Si      -2.04755528       2.46364587       1.37765269       0.00000000
Si       1.11094543       1.19322622      -3.22721416       0.00000000
Si       0.61701634      -2.79608079       2.21191738       0.00000000
Si      -2.47919141      -2.61617402      -0.42549104       0.00000000
Si      -0.41591628      -0.65241451      -3.65273437       0.00000000
