10
Lattice="16.290000149 0.0 0.0 0.0 16.290000149 0.0 0.0 0.0 29.1751946751" Properties=species:S:1:pos:R:3:initial_magmoms:R:1 pbc="T T T"
Si       1.29805237       1.23852871      -1.49473275       0.00000000
Si       1.44503704      -1.34745994       1.28598423       0.00000000
Si      -1.50146560       1.33955929       1.24761885       0.00000000
Si      -1.43096248      -1.40888953      -1.31863127       0.00000000
Si      -2.81380105      -0.14884173       2.51767342       0.00000000
Si       2.45293193      -2.87865480      -0.16518995       0.00000000
Si      -0.11367162       2.60812676      -2.76023599       0.00000000
Si       0.13362687      -2.70545951       2.67343979       0.00000000
Si       2.53394210      -0.18927351      -2.87501121       0.00000000
Si       3.10202328       2.24686343      -0.39459451       0.00000000
