10
Lattice="16.290000149 0.0 0.0 0.0 16.290000149 0.0 0.0 0.0 29.1751946751" Properties=species:S:1:pos:R:3:initial_magmoms:R:1 pbc="T T T"
Si      -1.36894645       1.34692237      -1.34252576       0.00000000
Si      -1.37508778      -1.34283358       1.34156298       0.00000000
Si       1.35514882      -1.35288451      -1.36572004       0.00000000
Si       1.35830908       1.36195804       1.35760933       0.00000000
Si       0.01053963       2.69169446      -2.67659071       0.00000000
Si      -0.01255959      -2.73766485       2.64525655       0.00000000
Si       2.71816571      -2.69241122      -0.00201309       0.00000000
Si       2.71075376       0.01787013      -2.71180517       0.00000000
Si      -2.72921033       0.02327841       2.69450428       0.00000000
Si      -2.73004112      -2.69651630      -0.01803027       0.00000000
