10
Lattice="16.290000149 0.0 0.0 0.0 16.290000149 0.0 0.0 0.0 29.1751946751" Properties=species:S:1:pos:R:3:initial_magmoms:R:1 pbc="T T T"
Si      -1.48873008       1.07562871       1.42407043       0.00000000
Si      -1.42269042      -1.43661511      -1.16811644       0.00000000
Si       1.56114891      -1.07740432       1.36694540       0.00000000
Si       1.31233544       1.48840102      -1.27005457       0.00000000
H       -2.51889340      -0.03414384       1.63661172       0.00000000
Si       1.98758853       0.73577044       2.85076662       0.00000000
Si      -0.32359922       0.91559575       3.44389833       0.00000000
Si       0.01397193      -2.68337027      -2.53479926       0.00000000
Si      -2.71600240      -0.02500515      -2.53004371       0.00000000
Si       2.81380105       0.14884173      -2.51767342       0.00000000
