10
Lattice="16.290000149 0.0 0.0 0.0 16.290000149 0.0 0.0 0.0 29.1751946751" Properties=species:S:1:pos:R:3:initial_magmoms:R:1 pbc="T T T"
Si       1.35918874       1.36451557      -1.34165050       0.00000000
Si      -1.35285193       1.38539935       1.33505691       0.00000000
Si       1.38693061      -1.34227972       1.34742719       0.00000000
Si      -1.35830908      -1.36195804      -1.35760933       0.00000000
Si      -2.71052570       0.03305241       2.66681702       0.00000000
Si       0.04786002      -2.78919012       2.60213561       0.00000000
Si       2.69101028       2.71913823       0.04174970       0.00000000
Si       2.70997184       0.00397476      -2.70179808       0.00000000
Si      -0.00048870       2.71707428      -2.69514613       0.00000000
Si      -2.72725553      -0.01503567      -2.70013509       0.00000000
