10
Lattice="16.290000149 0.0 0.0 0.0 16.290000149 0.0 0.0 0.0 29.1751946751" Properties=species:S:1:pos:R:3:initial_magmoms:R:1 pbc="T T T"
Si      -1.36745103       1.24141204      -1.44510574       0.00000000
Si       1.20124090      -1.39375612      -1.48023268       0.00000000
Si      -1.36886663      -1.42332247       1.30150543       0.00000000
Si       1.43096248       1.40888953       1.31863127       0.00000000
Si      -0.07050312       2.74844883       2.56625012       0.00000000
Si       0.06221151      -2.63759537       2.68487647       0.00000000
Si       2.52266942      -2.78809869      -0.18164476       0.00000000
Si      -2.77079871       2.55924047      -0.13102580       0.00000000
Si       2.72901485       2.64741824      -0.17610148       0.00000000
Si      -0.03789054       2.63684603      -2.79148263       0.00000000
