10
Lattice="16.290000149 0.0 0.0 0.0 16.290000149 0.0 0.0 0.0 29.1751946751" Properties=species:S:1:pos:R:3:initial_magmoms:R:1 pbc="T T T"
Si      -1.41296203      -1.29617902      -1.34389495       0.00000000
Si      -1.38184813       1.35650089       1.32467054       0.00000000
Si       1.32141223       1.40323690      -1.34290679       0.00000000
Si       1.37142253      -1.41204979       1.30418372       0.00000000
Si       2.62562222       2.58742217       0.21036191       0.00000000
Si       2.66266568       0.04763196      -2.68716088       0.00000000
Si      -0.10598274      -2.72171693      -2.64587798       0.00000000
Si      -2.73504216      -0.04122999       2.64513110       0.00000000
Si      -2.69273702       0.19886832      -2.68205522       0.00000000
Si      -0.04476492       2.68121999       2.72970999       0.00000000
