10
Lattice="16.290000149 0.0 0.0 0.0 16.290000149 0.0 0.0 0.0 29.1751946751" Properties=species:S:1:pos:R:3:initial_magmoms:R:1 pbc="T T T"
Si       1.41172399      -1.36959805       1.26550324       0.00000000
Si       1.37842723       1.32501232      -1.35760933       0.00000000
Si      -1.33459084       1.33188670       1.41362571       0.00000000
Si      -1.35518140      -1.38017026      -1.34987791       0.00000000
Si      -2.68331978       2.68468976       0.02870839       0.00000000
Si       0.11367162      -2.60812676       2.76023599       0.00000000
Si       0.00456120       2.67639815      -2.70375282       0.00000000
Si      -2.72591324      -0.03381804      -2.70255663       0.00000000
Si       2.66970296      -0.04707810      -2.76522495       0.00000000
Si      -2.80396515      -0.04513959       2.63017298       0.00000000
