10
Lattice="16.290000149 0.0 0.0 0.0 16.290000149 0.0 0.0 0.0 29.1751946751" Properties=species:S:1:pos:R:3:initial_magmoms:R:1 pbc="T T T"
Si      -1.56114891       1.07740432      -1.36694540       0.00000000
Si       1.38627901      -1.47921346      -1.21117903       0.00000000
Si      -0.84761758      -1.48683718       1.63133101       0.00000000
Si       0.42643962       1.81317476       1.48382123       0.00000000
H        0.35056080      -1.12086604       2.51927806       0.00000000
Si      -1.88474813       1.99300007       2.07695293       0.00000000
Si      -0.24881346       2.56580534      -2.63699997       0.00000000
Si      -3.04987899       2.15303303       0.05712503       0.00000000
Si       2.69768918      -0.12121389      -2.59863459       0.00000000
Si      -0.11609883      -2.82023886      -2.51837363       0.00000000
