10
Lattice="16.290000149 0.0 0.0 0.0 16.290000149 0.0 0.0 0.0 29.1751946751" Properties=species:S:1:pos:R:3:initial_magmoms:R:1 pbc="T T T"
Si      -1.56673963       1.28044288      -1.12403273       0.00000000
Si      -1.39315339      -1.43534449       1.17730663       0.00000000
Si       1.56370969       1.12327696       1.46835837       0.00000000
Si       1.07067655      -1.10938159      -1.86712493       0.00000000
Si       2.09466596      -2.44568288      -0.24921451       0.00000000
Si       0.30815793      -3.03310029       1.19279866       0.00000000
Si       0.05067819       2.30628935      -2.51983239       0.00000000
Si       1.82705384       0.75865789      -3.15561823       0.00000000
Si      -2.53845443       2.73531909       0.38762164       0.00000000
Si      -2.98748829      -2.24857388      -0.38377051       0.00000000
