10
Lattice="16.290000149 0.0 0.0 0.0 16.290000149 0.0 0.0 0.0 29.1751946751" Properties=species:S:1:pos:R:3:initial_magmoms:R:1 pbc="T T T"
H        0.91298935       0.94830607       0.71406289       0.00000000
Si      -1.83464498      -0.65260999       1.24893173       0.00000000
Si       1.37606518      -1.49845195      -1.10393102       0.00000000
Si      -1.34058556       1.27371511      -1.39603307       0.00000000
H        1.58022775       0.16897617       2.51023375       0.00000000
H       -1.79370821      -2.37739520       1.14856906       0.00000000
H        2.22977522       1.81677485       1.39617894       0.00000000
Si      -2.42659100       2.69798240       0.09852463       0.00000000
Si       2.72852615      -0.08913888      -2.43455329       0.00000000
Si       0.07278372       2.59810841      -2.63381987       0.00000000
