10
Lattice="16.290000149 0.0 0.0 0.0 16.290000149 0.0 0.0 0.0 29.1751946751" Properties=species:S:1:pos:R:3:initial_magmoms:R:1 pbc="T T T"
Si      -0.97171480       1.45487620       1.51165436       0.00000000
Si       1.56673963      -1.28044288       1.12403273       0.00000000
Si       1.61741782       1.02584647      -1.39579966       0.00000000
Si      -1.89758954      -1.49921758      -0.31873900       0.00000000
H       -0.38002941      -2.34584147      -2.02671325       0.00000000
H        0.76988170      -0.70685569      -3.15433452       0.00000000
H       -2.49696380      -1.59402538      -1.71868154       0.00000000
Si       0.17358624      -2.71578737       2.30133936       0.00000000
Si      -2.66261681       2.38374830       0.20157142       0.00000000
H       -2.12850029       2.64248237      -1.18430868       0.00000000
