10
Lattice="16.290000149 0.0 0.0 0.0 16.290000149 0.0 0.0 0.0 29.1751946751" Properties=species:S:1:pos:R:3:initial_magmoms:R:1 pbc="T T T"
Si      -0.84654244       1.84474478      -1.12423695       0.00000000
Si       1.71699860      -0.44240382      -1.52417052       0.00000000
Si       1.37839465       1.02811078       1.63290647       0.00000000
Si      -1.39453804      -1.73827334       0.91551761       0.00000000
H        1.11762433      -0.53721162      -2.92411306       0.00000000
H       -2.00039573      -1.17558415      -2.18799372       0.00000000
Si       2.19383948      -2.47220300      -0.46516930       0.00000000
Si       0.32382891      -3.36888606       0.81179979       0.00000000
Si       2.64287333       2.51168996       0.30622284       0.00000000
Si      -2.56717370       2.60343524       0.25461192       0.00000000
