10
Lattice="16.290000149 0.0 0.0 0.0 16.290000149 0.0 0.0 0.0 29.1751946751" Properties=species:S:1:pos:R:3:initial_magmoms:R:1 pbc="T T T"
Si       1.29795463       1.28366749       1.50618693       0.00000000
Si      -1.33519357      -1.36484870       1.40847920       0.00000000
Si       1.48162438      -1.29895565      -1.33949154       0.00000000
Si      -1.35672895       1.38632707      -1.39883388       0.00000000
Si      -0.00607617      -2.55131457      -2.71448929       0.00000000
Si      -2.60804531       2.72939848       0.08760436       0.00000000
Si       2.69703758      -2.71372588       0.11026006       0.00000000
Si       2.28670877       3.07095092       0.35354501       0.00000000
Si       2.36988551       2.37885397      -1.87637347       0.00000000
Si       3.09928656       0.18839955      -2.27761992       0.00000000
