10
Lattice="16.290000149 0.0 0.0 0.0 16.290000149 0.0 0.0 0.0 29.1751946751" Properties=species:S:1:pos:R:3:initial_magmoms:R:1 pbc="T T T"
H       -1.19307961       0.52235514      -0.78300387       0.00000000
Si       1.34037379      -1.07240329      -1.61951506       0.00000000
H       -1.73636741       0.64138618       1.56408219       0.00000000
Si       1.30631140       1.66851956       1.17791931       0.00000000
Si      -0.68207860      -1.87025492       1.41864384       0.00000000
H       -0.54353214       2.17015382      -1.89705868       0.00000000
H        1.53748279      -1.08154198       2.54714037       0.00000000
Si      -3.04512231       1.10925127       0.96386091       0.00000000
H       -1.86031802       1.30168504      -2.57917473       0.00000000
Si       2.56764611       0.02823057       2.33459908       0.00000000
