10
Lattice="16.290000149 0.0 0.0 0.0 16.290000149 0.0 0.0 0.0 29.1751946751" Properties=species:S:1:pos:R:3:initial_magmoms:R:1 pbc="T T T"
Si       1.35977518      -1.35792953      -1.33957906       0.00000000
Si       1.37266057       1.34868169       1.34264246       0.00000000
Si      -1.34413678      -1.35604803       1.36525323       0.00000000
Si      -1.32981787       1.36925596      -1.37298466       0.00000000
Si      -0.00125433       2.70528032       2.67504442       0.00000000
Si       2.70860348       0.01550808      -2.67705751       0.00000000
Si       0.04412961      -2.70738173       2.69692582       0.00000000
Si       0.00421911      -2.72963388      -2.67784524       0.00000000
Si      -2.68990256       2.72427446      -0.01963491       0.00000000
Si      -2.70104492      -2.71839377       0.01514193       0.00000000
