10
Lattice="16.290000149 0.0 0.0 0.0 16.290000149 0.0 0.0 0.0 29.1751946751" Properties=species:S:1:pos:R:3:initial_magmoms:R:1 pbc="T T T"
Si      -1.38087073       1.36423864       1.31081232       0.00000000
Si      -1.37842723      -1.33481890      -1.34415957       0.00000000
Si       1.35664750       1.35617509      -1.35673408       0.00000000
Si       1.35459496      -1.35508366       1.36542829       0.00000000
Si      -0.00337203       2.70513371       2.64006337       0.00000000
Si      -0.00741195      -2.68055210      -2.68233822       0.00000000
Si      -2.73722501       0.01787013       2.67504442       0.00000000
Si       2.71650413      -2.70457985       0.01455842       0.00000000
Si       0.00055386       2.72658764      -2.69540871       0.00000000
Si      -2.72903114      -2.69772176       0.01301214       0.00000000
