10
Lattice="16.290000149 0.0 0.0 0.0 16.290000149 0.0 0.0 0.0 29.1751946751" Properties=species:S:1:pos:R:3:initial_magmoms:R:1 pbc="T T T"
Si      -1.34284987      -1.32711373      -1.40796572       0.00000000
Si      -1.39090537       1.34618932       1.35157007       0.00000000
Si       1.35391078       1.34887717      -1.39331977       0.00000000
Si       1.39066053      -1.35524656       1.35116162       0.00000000
Si      -2.67286322      -2.68973966      -0.03982414       0.00000000
Si      -2.72259659       2.64342719      -0.10759812       0.00000000
Si       2.66318045      -2.71443530      -0.07200438       0.00000000
Si       0.01501938       2.71609688       2.67005547       0.00000000
Si       2.74499372       0.05773176       2.66529991       0.00000000
Si      -2.74281248      -0.03762990       2.70494900       0.00000000
