10
Lattice="16.290000149 0.0 0.0 0.0 16.290000149 0.0 0.0 0.0 29.1751946751" Properties=species:S:1:pos:R:3:initial_magmoms:R:1 pbc="T T T"
Si       1.35457867      -1.38844558      -1.33015548       0.00000000
Si       1.36430380       1.32975271       1.37946155       0.00000000
Si      -1.34011315      -1.35338950       1.38576340       0.00000000
Si      -1.34838847       1.38474775      -1.36216066       0.00000000
Si      -2.69205284       2.68791518       0.06190976       0.00000000
Si       2.71094924       2.67740813       0.01067812       0.00000000
Si      -2.69684210      -2.70283682       0.03107158       0.00000000
Si       2.70040961      -0.05957253      -2.71168847       0.00000000
Si      -2.69513165       0.05176962      -2.75110707       0.00000000
Si       0.03396214       2.67944438       2.77038896       0.00000000
