10
Lattice="16.290000149 0.0 0.0 0.0 16.290000149 0.0 0.0 0.0 29.1751946751" Properties=species:S:1:pos:R:3:initial_magmoms:R:1 pbc="T T T"
Si       1.38520387      -1.31442382      -1.35825119       0.00000000
Si       1.37134108       1.36096435       1.32674198       0.00000000
Si      -1.35609364       1.37041255      -1.33867463       0.00000000
Si      -1.35664750      -1.35617509       1.35673408       0.00000000
Si       0.00661374      -2.67819005      -2.66311177       0.00000000
Si      -0.00835677       2.70782156       2.64709459       0.00000000
Si       0.02399517       2.68825727      -2.70220653       0.00000000
Si       2.71485884      -2.68149692       0.01677574       0.00000000
Si      -2.73751824       0.00806355       2.66754640       0.00000000
Si      -2.73507474      -2.69099399       0.01257451       0.00000000
