10
Lattice="16.290000149 0.0 0.0 0.0 16.290000149 0.0 0.0 0.0 29.1751946751" Properties=species:S:1:pos:R:3:initial_magmoms:R:1 pbc="T T T"
Si      -1.37391490       1.35659863       1.33240197       0.00000000
Si      -1.37266057      -1.34868169      -1.34264246       0.00000000
Si       1.35060391       1.36290286      -1.35717171       0.00000000
Si       1.36695907      -1.35710362       1.35232862       0.00000000
Si      -0.00819387       2.71559189       2.66203229       0.00000000
Si      -0.01288539      -2.70661122      -2.68222152       0.00000000
Si       2.72161919       0.01716966      -2.69535036       0.00000000
Si      -2.70247844       0.02057427      -2.71562712       0.00000000
Si      -2.71679735      -2.70472972       0.02261078       0.00000000
Si       2.72129339      -2.70141471      -0.01566708       0.00000000
