10
Lattice="16.290000149 0.0 0.0 0.0 16.290000149 0.0 0.0 0.0 29.1751946751" Properties=species:S:1:pos:R:3:initial_magmoms:R:1 pbc="T T T"
Si      -1.32501232      -1.33620404      -1.33726255       0.00000000
Si       1.31672935      -1.43521906       1.27603549       0.00000000
Si      -1.44265870       1.33155602       1.28262908       0.00000000
Si       1.29911810       1.29040747      -1.47218324       0.00000000
Si       2.63076661      -0.05137540       2.63988831       0.00000000
Si      -0.07382628       2.68017255       2.62034093       0.00000000
Si      -2.74191653       0.00680922      -2.59190387       0.00000000
Si       2.66136737       2.68558083      -0.15386998       0.00000000
Si      -0.15105717       2.67510636      -2.69870551       0.00000000
Si      -0.08158032      -2.76990764       2.61074230       0.00000000
