10
Lattice="16.290000149 0.0 0.0 0.0 16.290000149 0.0 0.0 0.0 29.1751946751" Properties=species:S:1:pos:R:3:initial_magmoms:R:1 pbc="T T T"
Si       1.34990344       1.39500876      -1.31077439       0.00000000
Si      -1.32411637       1.35167905       1.38474226       0.00000000
Si      -1.33708321      -1.32471910      -1.40503945       0.00000000
Si       1.38460114      -1.35752716       1.33896638       0.00000000
Si       2.67038714      -0.09379782      -2.51934808       0.00000000
Si       0.02088378      -2.71871957       2.66909268       0.00000000
Si       2.71067231       2.67760524       0.09916649       0.00000000
Si      -0.03290580       2.71941027      -2.67668991       0.00000000
Si      -2.71134020      -0.00785178       2.68919439       0.00000000
Si      -2.69449634       2.71230131       0.07101242       0.00000000
