10
Lattice="16.290000149 0.0 0.0 0.0 16.290000149 0.0 0.0 0.0 29.1751946751" Properties=species:S:1:pos:R:3:initial_magmoms:R:1 pbc="T T T"
Si      -1.36224928      -1.39517335      -1.31831326       0.00000000
Si       1.29384466      -1.35335692       1.43177268       0.00000000
Si      -1.35059235       1.32655987       1.40650696       0.00000000
Si       1.37420324       1.36088290      -1.36184849       0.00000000
Si      -2.66136737      -2.68558083       0.15386998       0.00000000
Si      -2.81242454      -0.01047447      -2.54483553       0.00000000
Si       0.06994274      -2.70221618      -2.67061271       0.00000000
Si       2.69445888       2.70189200       0.03253034       0.00000000
Si       2.65006863      -2.74849770       0.14249165       0.00000000
Si      -2.68052441       2.73540054       0.09560711       0.00000000
