10
Lattice="16.290000149 0.0 0.0 0.0 16.290000149 0.0 0.0 0.0 29.1751946751" Properties=species:S:1:pos:R:3:initial_magmoms:R:1 pbc="T T T"
Si       1.36848782      -1.35653347       1.34086277       0.00000000
Si       1.39830967       1.33468858      -1.33470681       0.00000000
Si      -1.35078310       1.36054081       1.36014758       0.00000000
Si      -1.35752716      -1.34806267      -1.36761643       0.00000000
Si       0.08158032       2.76990764      -2.61074230       0.00000000
Si       2.69882948      -2.70622514      -0.05006463       0.00000000
Si       0.02050911      -2.71049312       2.69759685       0.00000000
Si      -2.70997184      -0.00397476       2.70179808       0.00000000
Si       2.68267632       0.00948078       2.73558295       0.00000000
Si      -2.71046054       2.71309952       0.00665194       0.00000000
