10
Lattice="16.290000149 0.0 0.0 0.0 16.290000149 0.0 0.0 0.0 29.1751946751" Properties=species:S:1:pos:R:3:initial_magmoms:R:1 pbc="T T T"
Si      -1.35684298      -0.57516733      -0.27523879       0.00000000
H        0.91948906      -1.76862161      -0.44818934       0.00000000
H        1.59938479      -0.84199753       1.17010036       0.00000000
Si       1.06526827      -1.10073160       2.55598046       0.00000000
Si      -2.71482626       0.77711446       1.05179494       0.00000000
Si      -1.82270441      -0.15253956      -2.48689359       0.00000000
Si       2.05143230      -1.82522936      -1.45269129       0.00000000
Si      -1.17358048       2.08920881       2.24170526       0.00000000
Si      -0.00086337       1.15575922      -3.11410193       0.00000000
Si      -1.81121996      -2.78283702       0.33638999       0.00000000
