10
Lattice="16.290000149 0.0 0.0 0.0 16.290000149 0.0 0.0 0.0 29.1751946751" Properties=species:S:1:pos:R:3:initial_magmoms:R:1 pbc="T T T"
Si      -0.38397159      -0.63905671      -2.22460859       0.00000000
Si      -1.99135478      -0.59935798       1.17062551       0.00000000
Si       0.77006089       2.04042026       1.00835308       0.00000000
Si       1.48713040      -1.86882140       0.34934378       0.00000000
H       -2.24738471       2.08440326      -0.27526796       0.00000000
Si       1.79405030       0.70411897       2.62626350       0.00000000
H        2.75449242       1.95234023      -0.04953948       0.00000000
Si      -2.14322645      -2.13283343      -1.88486345       0.00000000
Si      -1.06380217      -1.64323748       3.00466577       0.00000000
H       -0.45621774       3.28424322      -1.38299175       0.00000000
