10
Lattice="16.290000149 0.0 0.0 0.0 16.290000149 0.0 0.0 0.0 29.1751946751" Properties=species:S:1:pos:R:3:initial_magmoms:R:1 pbc="T T T"
Si       1.32626665      -1.37049400       1.33447340       0.00000000
Si      -1.23403267       1.37363797       1.41753518       0.00000000
Si       1.34902105       1.41406975      -1.30401450       0.00000000
Si      -1.38693061      -1.35804844      -1.33651567       0.00000000
H       -1.88568155       0.54786529       2.49421657       0.00000000
H       -3.20246742      -0.32060349       1.81210052       0.00000000
Si       2.61039107       0.04214223       2.65406746       0.00000000
Si      -2.81359254       2.45925245       0.09680330       0.00000000
Si      -0.08707005       2.76504834      -2.59215770       0.00000000
Si       0.00017919      -2.69661404      -2.67066815       0.00000000
