10
Lattice="16.290000149 0.0 0.0 0.0 16.290000149 0.0 0.0 0.0 29.1751946751" Properties=species:S:1:pos:R:3:initial_magmoms:R:1 pbc="T T T"
Si      -1.74760751      -0.31617587       1.49301141       0.00000000
Si       0.11971521      -2.30695235      -0.22984218       0.00000000
Si      -0.98113042       0.85971290      -1.98808529       0.00000000
Si       1.83283679       1.19015230       1.00371422       0.00000000
H       -0.42020055       2.67040832       1.49773779       0.00000000
Si      -2.50447349       2.17395428      -0.78991840       0.00000000
Si       1.71810632      -2.22496478      -2.02604222       0.00000000
Si      -1.06552891       3.50922930       0.41551312       0.00000000
Si       0.40524633      -3.17763657       2.01647276       0.00000000
Si      -3.66898044       0.73684883       0.71560918       0.00000000
