10
Lattice="16.290000149 0.0 0.0 0.0 16.290000149 0.0 0.0 0.0 29.1751946751" Properties=species:S:1:pos:R:3:initial_magmoms:R:1 pbc="T T T"
Si      -1.28138770      -0.03938922      -0.82008555       0.00000000
Si       2.31037814      -0.19917783      -0.91741400       0.00000000
Si       2.16661889       0.21618459       1.44078781       0.00000000
Si       1.44876745       1.87887233      -1.70984146       0.00000000
H        1.29381697       2.67388949      -0.43360174       0.00000000
Si       0.64420435      -1.15767492       2.72213319       0.00000000
Si      -2.64343208      -1.42447581       0.51386270       0.00000000
Si      -0.80272234      -2.59900436       1.44682708       0.00000000
Si      -0.68141071      -1.55947104      -2.57716165       0.00000000
Si      -2.07625663       2.22184199      -0.60497684       0.00000000
