10
Lattice="10.86 0.0 0.0 0.0 10.86 0.0 0.0 0.0 10.86" Properties=species:S:1:pos:R:3:initial_magmoms:R:1 pbc="T T T"
Si       1.32449646      -1.33909230      -1.29013542       0.00000000
Si       1.32449646       1.37590770       1.42486458       0.00000000
Si      -1.39050354      -1.33909230       1.42486458       0.00000000
Si       2.58917604      -0.09072444      -2.66445756       0.00000000
Si       2.44649736       2.81772474      -0.05212800       0.00000000
Si      -0.03300354      -2.69659230      -2.64763542       0.00000000
Si       2.68199646      -2.69659230       0.06736458       0.00000000
Si      -2.65502022       2.75600736       0.04763196       0.00000000
Si      -2.74800354      -2.69659230       0.06736458       0.00000000
Si       2.68199646       0.01840770       2.78236458       0.00000000
