10
Lattice="10.86 0.0 0.0 0.0 10.86 0.0 0.0 0.0 10.86" Properties=species:S:1:pos:R:3:initial_magmoms:R:1 pbc="T T T"
Si       1.37233476       1.26219264       1.31628630       0.00000000
Si      -1.47167118      -1.30459008       1.18249110       0.00000000
Si      -1.34266524       1.26219264      -1.39871370       0.00000000
Si       1.37233476      -1.45280736      -1.39871370       0.00000000
Si       0.01483476       2.61969264       2.67378630       0.00000000
Si      -2.70016524       2.61969264      -0.04121370       0.00000000
Si      -0.21347502      -2.69410536       2.62933632       0.00000000
Si       2.72983476       2.61969264      -0.04121370       0.00000000
Si       0.01483476       2.61969264      -2.75621370       0.00000000
Si      -2.62292892      -2.75469330      -0.03993222       0.00000000
