10
Lattice="10.86 0.0 0.0 0.0 10.86 0.0 0.0 0.0 10.86" Properties=species:S:1:pos:R:3:initial_magmoms:R:1 pbc="T T T"
Si      -1.26139986       1.34210052      -1.34466348       0.00000000
Si       1.45360014       1.34210052       1.37033652       0.00000000
Si       1.45360014      -1.37289948      -1.34466348       0.00000000
Si      -2.52294090      -2.64872142       0.00583182       0.00000000
Si      -2.61889986      -0.01539948      -2.70216348       0.00000000
Si       0.14116914       2.62264656       2.71289316       0.00000000
Si       0.09610014       2.69960052      -2.70216348       0.00000000
Si      -2.63373462       2.79490788       0.05405022       0.00000000
Si       0.09610014      -2.73039948      -2.70216348       0.00000000
Si       2.81110014       2.69960052       0.01283652       0.00000000
