10
Lattice="10.86 0.0 0.0 0.0 10.86 0.0 0.0 0.0 10.86" Properties=species:S:1:pos:R:3:initial_magmoms:R:1 pbc="T T T"
Si      -1.47649302      -1.18291464       0.95943756       0.00000000
Si       1.23850698       1.53208536       0.95943756       0.00000000
Si       1.23850698      -1.18291464      -1.75556244       0.00000000
Si      -0.11899302      -2.54041464       2.31693756       0.00000000
Si       2.59600698       0.17458536       2.31693756       0.00000000
Si       2.59600698      -2.54041464      -0.39806244       0.00000000
Si      -0.13421874       2.77891110       2.36922846       0.00000000
Si      -3.13825764       0.31803510       1.94833830       0.00000000
Si      -2.83399302      -2.54041464      -0.39806244       0.00000000
Si       2.59600698       2.88958536      -0.39806244       0.00000000
