10
Lattice="10.86 0.0 0.0 0.0 10.86 0.0 0.0 0.0 10.86" Properties=species:S:1:pos:R:3:initial_magmoms:R:1 pbc="T T T"
Si       1.35750000       1.35750000       1.35750000       0.00000000
Si      -1.35750000       1.35750000      -1.35750000       0.00000000
Si       1.35750000      -1.35750000      -1.35750000       0.00000000
Si      -1.35750000      -1.35750000       1.35750000       0.00000000
Si      -2.06979654       2.33833176       0.82906326       0.00000000
Si       2.54207622      -2.48982876       0.10634112       0.00000000
Si      -0.06926508       2.50731336       2.58509268       0.00000000
Si      -0.00382272      -2.85006582      -2.44938612       0.00000000
Si      -2.54645280      -2.81292462      -0.01160934       0.00000000
Si       2.71500000       0.00000000       2.71500000       0.00000000
