10
Lattice="10.86 0.0 0.0 0.0 10.86 0.0 0.0 0.0 10.86" Properties=species:S:1:pos:R:3:initial_magmoms:R:1 pbc="T T T"
Si      -1.30710960       1.06677780      -1.58472378       0.00000000
Si      -1.30710960      -1.64822220       1.13027622       0.00000000
Si       1.41319008       1.84396284       1.28255514       0.00000000
Si       1.40789040      -1.64822220      -1.58472378       0.00000000
Si      -2.38146768       2.54229342      -0.39923532       0.00000000
Si       2.56677186      -0.05250810       2.43646272       0.00000000
Si       2.89984806       2.41113720      -0.39114462       0.00000000
Si       0.05039040       2.42427780      -2.94222378       0.00000000
Si       0.05039040      -3.00572220       2.48777622       0.00000000
Si      -2.01940614      -0.66739044       3.31683948       0.00000000
