10
Lattice="10.86 0.0 0.0 0.0 10.86 0.0 0.0 0.0 10.86" Properties=species:S:1:pos:R:3:initial_magmoms:R:1 pbc="T T T"
Si      -1.09838040       1.24198218      -1.30816302       0.00000000
Si       1.55533662       1.07397798       1.23502092       0.00000000
Si      -1.09838040      -1.47301782       1.40683698       0.00000000
Si       1.61661960      -1.47301782      -1.30816302       0.00000000
Si       1.33142514       3.04027872      -0.30485106       0.00000000
Si       0.11359560       2.37580962       2.57585082       0.00000000
Si      -2.45588040       2.59948218       0.04933698       0.00000000
Si      -2.45588040      -0.11551782      -2.66566302       0.00000000
Si      -2.45588040      -0.11551782       2.76433698       0.00000000
Si      -2.45588040      -2.83051782       0.04933698       0.00000000
