10
Lattice="10.86 0.0 0.0 0.0 10.86 0.0 0.0 0.0 10.86" Properties=species:S:1:pos:R:3:initial_magmoms:R:1 pbc="T T T"
Si      -0.72745710      -0.18932238      -2.25517674       0.00000000
Si       0.22391148      -1.96630074       1.53987198       0.00000000
Si      -1.18350108       2.30719614       0.37817778       0.00000000
Si      -2.42980554       0.91670346       1.71168804       0.00000000
Si      -2.42980554      -1.79829654      -1.00331196       0.00000000
Si      -1.21782954      -0.66446910       2.88070188       0.00000000
Si      -1.33142514      -3.04027872       0.30485106       0.00000000
Si       1.61314440       2.15528646      -2.10366888       0.00000000
Si      -3.78730554      -0.44079654       0.35418804       0.00000000
Si       0.28519446       3.63170346       1.71168804       0.00000000
