10
Lattice="10.86 0.0 0.0 0.0 10.86 0.0 0.0 0.0 10.86" Properties=species:S:1:pos:R:3:initial_magmoms:R:1 pbc="T T T"
Si       1.34836674      -1.31918592      -1.21583130       0.00000000
Si      -1.36663326       1.39581408      -1.21583130       0.00000000
Si      -1.36663326      -1.31918592       1.49916870       0.00000000
Si      -0.00913326      -2.67668592      -2.57333130       0.00000000
Si       2.70586674       0.03831408      -2.57333130       0.00000000
Si      -2.72413326       0.03831408      -2.57333130       0.00000000
Si      -0.00913326       2.75331408      -2.57333130       0.00000000
Si       2.70586674      -2.67668592       0.14166870       0.00000000
Si      -2.72413326      -2.67668592       0.14166870       0.00000000
Si      -2.37928482       3.00478824       0.24730392       0.00000000
