10
Lattice="10.86 0.0 0.0 0.0 10.86 0.0 0.0 0.0 10.86" Properties=species:S:1:pos:R:3:initial_magmoms:R:1 pbc="T T T"
Si       1.20493872      -1.31714424       1.14691374       0.00000000
Si      -1.39615074       1.44036180       1.30272216       0.00000000
Si      -1.36159422      -1.21653720      -1.61942148       0.00000000
Si       2.54425908       0.14808696       2.54806008       0.00000000
Si       2.54425908      -2.56691304      -0.16693992       0.00000000
Si      -0.17074092      -2.56691304       2.54806008       0.00000000
Si      -0.17074092       2.86308696       2.54806008       0.00000000
Si      -2.88574092       0.14808696       2.54806008       0.00000000
Si      -0.17074092      -2.56691304      -2.88193992       0.00000000
Si      -2.88574092      -2.56691304      -0.16693992       0.00000000
