10
Lattice="10.86 0.0 0.0 0.0 10.86 0.0 0.0 0.0 10.86" Properties=species:S:1:pos:R:3:initial_magmoms:R:1 pbc="T T T"
Si      -1.21782954       1.30079994      -1.29167754       0.00000000
Si       1.38434592       1.11333462       1.29965964       0.00000000
Si      -1.21782954      -1.41420006       1.42332246       0.00000000
Si       1.49717046      -1.41420006      -1.29167754       0.00000000
Si      -2.57532954      -0.05670006      -2.64917754       0.00000000
Si       0.04919580       2.65278306       2.57607888       0.00000000
Si      -2.57532954       2.65829994       0.06582246       0.00000000
Si       0.13967046       2.65829994      -2.64917754       0.00000000
Si      -2.57532954      -2.77170006       0.06582246       0.00000000
Si      -2.57532954      -0.05670006       2.78082246       0.00000000
