10
Lattice="10.86 0.0 0.0 0.0 10.86 0.0 0.0 0.0 10.86" Properties=species:S:1:pos:R:3:initial_magmoms:R:1 pbc="T T T"
Si       1.41904362       1.15125774       1.53070614       0.00000000
Si       1.41904362      -1.56374226      -1.18429386       0.00000000
Si      -1.29595638      -1.56374226       1.53070614       0.00000000
Si      -0.13731384       2.42006412      -2.22088086       0.00000000
Si      -2.57219100       2.45432742       0.25473216       0.00000000
Si       2.77654362       2.50875774       0.17320614       0.00000000
Si       2.77654362      -0.20624226      -2.54179386       0.00000000
Si       0.06154362       2.50875774       2.88820614       0.00000000
Si      -2.65345638      -0.20624226       2.88820614       0.00000000
Si       2.77654362      -0.20624226       2.88820614       0.00000000
