10
Lattice="10.86 0.0 0.0 0.0 10.86 0.0 0.0 0.0 10.86" Properties=species:S:1:pos:R:3:initial_magmoms:R:1 pbc="T T T"
Si      -1.18819260      -1.37026050      -1.30195110       0.00000000
Si      -1.18819260       1.34473950       1.41304890       0.00000000
Si       1.52680740       1.34473950      -1.30195110       0.00000000
Si      -2.54569260      -0.01276050      -2.65945110       0.00000000
Si      -2.54569260       2.70223950       0.05554890       0.00000000
Si      -2.54569260      -2.72776050       0.05554890       0.00000000
Si      -2.54569260      -0.01276050       2.77054890       0.00000000
Si       0.16930740       2.70223950      -2.65945110       0.00000000
Si       0.16930740      -2.72776050      -2.65945110       0.00000000
Si       0.13243770      -2.64915582       2.76190434       0.00000000
