10
Lattice="10.86 0.0 0.0 0.0 10.86 0.0 0.0 0.0 10.86" Properties=species:S:1:pos:R:3:initial_magmoms:R:1 pbc="T T T"
Si       1.52995680       1.36539522       0.76819296       0.00000000
Si       1.01317284      -1.69486590      -1.46328726       0.00000000
Si      -1.70182716       1.02013410      -1.46328726       0.00000000
Si      -1.70182716      -1.69486590       1.25171274       0.00000000
Si      -0.19940046       2.31413568       2.47271340       0.00000000
Si       2.17487790      -0.04131144       2.78419992       0.00000000
Si       1.28509638       3.26008512      -1.05735132       0.00000000
Si       2.55264300      -0.42113994      -2.68033488       0.00000000
Si      -0.10351752       2.46172308      -2.88581694       0.00000000
Si       2.37067284      -3.05236590      -0.10578726       0.00000000
