10
Lattice="10.86 0.0 0.0 0.0 10.86 0.0 0.0 0.0 10.86" Properties=species:S:1:pos:R:3:initial_magmoms:R:1 pbc="T T T"
Si      -1.52609064       1.05627618      -1.13759586       0.00000000
Si       1.18890936       1.05627618       1.57740414       0.00000000
Si       1.18890936      -1.65872382      -1.13759586       0.00000000
Si      -0.16859064       2.41377618      -2.49509586       0.00000000
Si       2.54640936       2.41377618       0.21990414       0.00000000
Si       2.54640936      -0.30122382      -2.49509586       0.00000000
Si      -2.88359064       2.41377618       0.21990414       0.00000000
Si      -0.16859064       2.41377618       2.93490414       0.00000000
Si       0.11874324      -3.01740756      -2.33195694       0.00000000
Si       2.54640936      -0.30122382       2.93490414       0.00000000
