10
Lattice="16.28999089631971 0.0 0.0 0.0 16.28999089631971 0.0 0.0 0.0 34.32429715621058" Properties=species:S:1:pos:R:3:initial_magmoms:R:1 pbc="T T T"
Si      -1.80053859      -0.65243079       1.52163611       0.00000000
Si       1.89180657      -1.66561992       0.14028348       0.00000000
Si       0.79469136       1.97017776       1.44427254       0.00000000
Si      -1.11744513      -1.27057113      -1.97924305       0.00000000
Si      -0.49837626      -2.01372093       2.91561868       0.00000000
Si       2.22527916       0.71364861       2.89587190       0.00000000
Si       0.78705135      -3.35013624       1.42420311       0.00000000
Si      -3.00639118      -2.37278511       0.47059774       0.00000000
Si      -3.43393919      -1.11355182      -1.49441208       0.00000000
Si       3.61248669      -0.63332262       1.44640751       0.00000000
