10
Lattice="16.28999089631971 0.0 0.0 0.0 16.28999089631971 0.0 0.0 0.0 34.32429715621058" Properties=species:S:1:pos:R:3:initial_magmoms:R:1 pbc="T T T"
Si       2.19295980      -0.09296703      -0.75283523       0.00000000
Si      -0.69361191       2.22122295      -0.00947351       0.00000000
Si      -1.25058819      -1.05551055      -1.68247501       0.00000000
Si      -0.30061566      -1.21218777       2.02595845       0.00000000
Si       0.14871141      -3.45615156       0.90300411       0.00000000
Si      -0.44442378      -3.23718138      -1.45449290       0.00000000
Si       3.38310720       1.46983041       0.53590555       0.00000000
Si      -3.02750369       2.13156279       0.43869909       0.00000000
Si      -0.22043628       3.06015795      -2.18192814       0.00000000
Si      -2.61710972      -1.05516846       2.51078942       0.00000000
