10
Lattice="16.28999089631971 0.0 0.0 0.0 16.28999089631971 0.0 0.0 0.0 34.32429715621058" Properties=species:S:1:pos:R:3:initial_magmoms:R:1 pbc="T T T"
Si       1.15655742      -1.40207704      -1.42536186       0.00000000
Si      -1.35063648      -1.35661654       1.33619758       0.00000000
Si      -1.24563114       1.39784490      -1.40169181       0.00000000
Si       1.36293543       1.35627282       1.33623191       0.00000000
Si       2.10659022       0.49757805      -2.49998206       0.00000000
Si      -0.66588633      -2.25072251      -2.78448606       0.00000000
Si       0.47734587       2.40779232      -2.74391472       0.00000000
Si      -2.38816287      -0.10946880      -2.88814550       0.00000000
Si      -2.71031391      -0.00040725       2.69444510       0.00000000
Si       0.00680922      -2.71337957       2.69365564       0.00000000
