10
Lattice="16.28999089631971 0.0 0.0 0.0 16.28999089631971 0.0 0.0 0.0 34.32429715621058" Properties=species:S:1:pos:R:3:initial_magmoms:R:1 pbc="T T T"
Si       1.35604476       1.35674837       1.35817887       0.00000000
Si      -1.35744570       1.35676303      -1.35745806       0.00000000
Si       1.35562122      -1.35945341      -1.35738941       0.00000000
Si      -1.35858600      -1.35889955       1.35807590       0.00000000
Si      -0.00680922       2.71337957      -2.69365564       0.00000000
Si       2.71350675       2.71424294       0.00082378       0.00000000
Si      -0.00084708       2.71331441       2.71495045       0.00000000
Si       2.71404432      -0.00103034       2.71471018       0.00000000
Si       2.71321353      -2.71621493       0.00092676       0.00000000
Si      -2.71712313       2.71297232       0.00078946       0.00000000
