10
Lattice="16.28999089631971 0.0 0.0 0.0 16.28999089631971 0.0 0.0 0.0 34.32429715621058" Properties=species:S:1:pos:R:3:initial_magmoms:R:1 pbc="T T T"
Si      -1.35689184       1.35656604       1.35677158       0.00000000
Si      -1.35604476      -1.35674837      -1.35817887       0.00000000
Si       1.35799956      -1.35777871       1.35653131       0.00000000
Si       1.35746199       1.35749457      -1.35735509       0.00000000
Si      -0.00053757      -2.71361168       2.71412667       0.00000000
Si       2.71428867      -0.00068744       2.71412667       0.00000000
Si      -2.71376739      -0.00308533       2.71467585       0.00000000
Si       0.00008145       2.71290402      -2.71560261       0.00000000
Si      -2.71480995       2.71378368       0.00020595       0.00000000
Si      -2.71349046       0.00001466      -2.71563694       0.00000000
