10
Lattice="16.28999089631971 0.0 0.0 0.0 16.28999089631971 0.0 0.0 0.0 34.32429715621058" Properties=species:S:1:pos:R:3:initial_magmoms:R:1 pbc="T T T"
Si      -0.91240290      -1.76565681      -1.26576206       0.00000000
Si      -1.40100516       1.26252387       1.43384340       0.00000000
Si       1.32320412      -1.43073441       1.45233734       0.00000000
Si       1.27391058       1.38955329      -1.60553847       0.00000000
Si       2.68074756       2.60434746      -0.06847358       0.00000000
Si       2.56562613      -0.24496902      -2.76295442       0.00000000
Si      -1.47302325      -0.73028070      -3.40423562       0.00000000
Si      -2.63537991      -2.77560423       0.07646085       0.00000000
Si       2.61177570      -2.80147275       0.05207342       0.00000000
Si      -0.02593368       2.61669528       2.81222213       0.00000000
