10
Lattice="16.28999089631971 0.0 0.0 0.0 16.28999089631971 0.0 0.0 0.0 34.32429715621058" Properties=species:S:1:pos:R:3:initial_magmoms:R:1 pbc="T T T"
Si       1.27461105      -1.63778031      -1.10857244       0.00000000
Si      -0.45908478       2.07503649      -1.07342434       0.00000000
Si      -2.22090204      -0.84255138      -0.37533640       0.00000000
Si       0.38825586       0.23411988       2.40767917       0.00000000
Si       1.00095534      -0.81875169      -3.44581812       0.00000000
Si      -1.83393309      -0.20513997       3.18862601       0.00000000
Si       0.39752487      -3.67154513      -0.31749993       0.00000000
Si      -0.86125230       3.66718851       0.62590391       0.00000000
Si       3.54382434      -1.29798720      -0.61807796       0.00000000
Si      -3.68719982       0.98311779       0.43289828       0.00000000
