10
Lattice="16.28999089631971 0.0 0.0 0.0 16.28999089631971 0.0 0.0 0.0 34.32429715621058" Properties=species:S:1:pos:R:3:initial_magmoms:R:1 pbc="T T T"
Si      -0.30480219      -2.05672653      -1.12844622       0.00000000
Si       2.32160193       0.38188647      -0.27981183       0.00000000
Si      -0.99056232       2.07969543      -0.76574117       0.00000000
Si       0.09912465      -0.42362145       2.39391512       0.00000000
Si       2.29509810       2.61097749       0.54857122       0.00000000
Si       0.90143973       3.35432277      -1.26261998       0.00000000
Si       0.86760540      -1.76282235      -3.18776791       0.00000000
Si       3.40337196      -1.32291090       0.88982358       0.00000000
Si      -2.57401548      -2.39651964      -1.61894070       0.00000000
Si       2.30622417      -1.13710716       2.96081553       0.00000000
