10
Lattice="16.28999089631971 0.0 0.0 0.0 16.28999089631971 0.0 0.0 0.0 34.32429715621058" Properties=species:S:1:pos:R:3:initial_magmoms:R:1 pbc="T T T"
Si      -0.32105961      -1.94997816      -1.21974891       0.00000000
Si       2.11159125       0.59844573      -0.80123252       0.00000000
Si      -2.16358893       1.06258041      -0.47333232       0.00000000
Si       0.56392722      -1.08672219       2.13957193       0.00000000
Si      -2.24798742       1.18198611       2.22050867       0.00000000
Si      -1.64110347      -0.99044829       2.91210932       0.00000000
Si       2.23855551       2.72186352       0.24613967       0.00000000
Si      -2.43069606      -2.55347379      -0.40753261       0.00000000
Si      -1.42760673       3.39400521      -0.39778450       0.00000000
Si       0.26674875       3.59828181       1.21254080       0.00000000
