10
Lattice="16.28999089631971 0.0 0.0 0.0 16.28999089631971 0.0 0.0 0.0 34.32429715621058" Properties=species:S:1:pos:R:3:initial_magmoms:R:1 pbc="T T T"
Si      -0.36776304       0.48811356      -2.25212137       0.00000000
Si       0.42182955       2.05113906       1.06752056       0.00000000
Si       2.37938256      -0.44069337      -0.10832754       0.00000000
Si      -2.27571300      -0.32081526       0.79790306       0.00000000
Si       2.62686024       1.95486516       0.29498317       0.00000000
Si       0.98244990       1.01576295       3.20599412       0.00000000
Si      -1.82470806       2.32026615      -1.93431252       0.00000000
Si       1.74187341       1.09160919      -3.06433767       0.00000000
Si       2.92157892      -2.08523403       1.42490534       0.00000000
Si       0.15926733      -3.84434063      -0.43773801       0.00000000
