10
Lattice="16.28999089631971 0.0 0.0 0.0 16.28999089631971 0.0 0.0 0.0 34.32429715621058" Properties=species:S:1:pos:R:3:initial_magmoms:R:1 pbc="T T T"
Si      -1.35848826       1.35521397       1.36051293       0.00000000
Si       1.35430173       1.34464176      -1.37721857       0.00000000
Si       1.35690813      -1.36070370       1.36044428       0.00000000
Si      -1.37507148      -1.35417141      -1.37837873       0.00000000
Si      -2.71669959       2.71112841       0.00195649       0.00000000
Si       2.71445157       2.71430496      -0.00127000       0.00000000
Si      -0.00032580       2.71226871       2.71773072       0.00000000
Si       2.71223613      -2.71930599       0.00137297       0.00000000
Si       2.71409319      -0.00215028       2.71779937       0.00000000
Si       0.02593368      -2.61669528      -2.81222213       0.00000000
