10
Lattice="16.28999089631971 0.0 0.0 0.0 16.28999089631971 0.0 0.0 0.0 34.32429715621058" Properties=species:S:1:pos:R:3:initial_magmoms:R:1 pbc="T T T"
Si      -1.35731538      -1.35697329       1.35708050       0.00000000
Si       1.35816246       1.35705474       1.35721779       0.00000000
Si      -1.35821133       1.35591444      -1.35855644       0.00000000
Si       1.35848826      -1.35521397      -1.36051293       0.00000000
Si      -2.70938538      -0.00278559      -2.71602137       0.00000000
Si      -2.71433754      -0.00035838       2.71443558       0.00000000
Si      -2.71437012       2.71477737      -0.00157892       0.00000000
Si       0.00009774       2.71497285       2.71419531       0.00000000
Si       0.00022806      -2.71513575       2.71419531       0.00000000
Si      -2.71559187      -2.71383255      -0.00027459       0.00000000
