10
Lattice="16.28999089631971 0.0 0.0 0.0 16.28999089631971 0.0 0.0 0.0 34.32429715621058" Properties=species:S:1:pos:R:3:initial_magmoms:R:1 pbc="T T T"
Si       1.35138582       1.36029645      -1.36198887       0.00000000
Si      -1.36249560      -1.35681039      -1.36415130       0.00000000
Si       1.35363384      -1.32357879       1.40829238       0.00000000
Si      -1.54082223       1.19364975       1.33332807       0.00000000
Si      -0.15027525      -2.31637284       3.02973875       0.00000000
Si      -2.70078426      -2.71423980       0.00514865       0.00000000
Si      -2.72000646       2.70444951      -0.02320324       0.00000000
Si       2.70247842      -2.72217303       0.00453081       0.00000000
Si       2.71055826       0.00058644      -2.72147207       0.00000000
Si      -0.00552231      -2.71370223      -2.72123180       0.00000000
