10
Lattice="16.28999089631971 0.0 0.0 0.0 16.28999089631971 0.0 0.0 0.0 34.32429715621058" Properties=species:S:1:pos:R:3:initial_magmoms:R:1 pbc="T T T"
Si       2.38309668       0.15483645      -0.15126726       0.00000000
Si      -0.84455505       2.23112727      -0.22379454       0.00000000
Si      -0.51842925      -0.51611607       2.36065486       0.00000000
Si      -0.02248020      -1.95380631      -1.83363930       0.00000000
Si       3.00368052      -2.09179890      -0.32687046       0.00000000
Si      -2.86791966      -1.35931905       1.88104118       0.00000000
Si      -3.01580028       2.04340131       0.77167928       0.00000000
Si      -3.22250409       0.53172189      -2.02506602       0.00000000
Si       1.48142889      -0.96101226      -3.45508568       0.00000000
Si      -0.71498439       1.53534879       3.60436213       0.00000000
