10
Lattice="16.28999089631971 0.0 0.0 0.0 16.28999089631971 0.0 0.0 0.0 34.32429715621058" Properties=species:S:1:pos:R:3:initial_magmoms:R:1 pbc="T T T"
Si       1.69435548       0.20427660       1.61032530       0.00000000
Si      -0.95977422       2.17732140       0.49718772       0.00000000
Si      -0.73598220      -2.33142480      -0.07554782       0.00000000
Si       0.94814316       0.26987643      -2.24570272       0.00000000
Si      -2.10999483      -1.71626553      -1.98593629       0.00000000
Si      -0.82038069      -2.21201910       2.61829317       0.00000000
Si      -0.72228231       3.01176036      -1.69359609       0.00000000
Si      -1.11923703      -0.14538825      -3.40150542       0.00000000
Si       1.42760673      -3.39400521       0.39778450       0.00000000
Si      -3.59715780      -0.96689295      -0.20446995       0.00000000
