10
Lattice="16.28999089631971 0.0 0.0 0.0 16.28999089631971 0.0 0.0 0.0 34.32429715621058" Properties=species:S:1:pos:R:3:initial_magmoms:R:1 pbc="T T T"
Si      -1.37401263       0.61515927      -1.91038847       0.00000000
Si       0.73598220       2.33142480       0.07554782       0.00000000
Si       2.16358893      -1.06258041       0.47333232       0.00000000
Si      -1.72405215      -1.78390161       0.38360856       0.00000000
Si      -0.08439849       0.11940570       2.69384099       0.00000000
Si      -2.86117560       1.36453185      -0.12892213       0.00000000
Si      -2.26804041       1.14556167       2.22857489       0.00000000
Si       1.84252932      -3.01255857      -0.74641658       0.00000000
Si      -0.26710713      -3.61605420       0.06579971       0.00000000
Si       1.68412536       2.60130123      -2.17015490       0.00000000
