10
Lattice="16.28999089631971 0.0 0.0 0.0 16.28999089631971 0.0 0.0 0.0 34.32429715621058" Properties=species:S:1:pos:R:3:initial_magmoms:R:1 pbc="T T T"
Si       1.29171555      -1.63452231      -1.15741595       0.00000000
Si       1.40683698       1.21479417       1.53706489       0.00000000
Si      -1.27391058      -1.38955329       1.60553847       0.00000000
Si      -1.81200186       1.52752959      -1.35011266       0.00000000
Si      -0.54190314      -2.21610789      -2.57123454       0.00000000
Si       2.35442628       2.83377582       0.13334997       0.00000000
Si       2.42735661       1.51125588      -2.34249729       0.00000000
Si      -2.18631348      -3.15521010       0.33977641       0.00000000
Si      -2.74693383      -2.11983399      -1.79869715       0.00000000
Si       0.05445747       2.57178375       3.04054203       0.00000000
