10
Lattice="16.28999089631971 0.0 0.0 0.0 16.28999089631971 0.0 0.0 0.0 34.32429715621058" Properties=species:S:1:pos:R:3:initial_magmoms:R:1 pbc="T T T"
Si       1.35692442       1.35734796      -1.35814455       0.00000000
Si       1.35640314      -1.35959598       1.35680590       0.00000000
Si      -1.35604476       1.36034532       1.35697752       0.00000000
Si      -1.35751086      -1.35798327      -1.35790428       0.00000000
Si      -0.00110772       2.70166392       2.69775397       0.00000000
Si      -2.71558698       2.71350675      -0.00106405       0.00000000
Si      -0.00048870      -2.71459818      -2.71525937       0.00000000
Si       2.71337643      -2.71648782      -0.00027459       0.00000000
Si      -0.00027693       2.71472850      -2.71519072       0.00000000
Si       2.71498914      -0.00057015      -2.71512207       0.00000000
