10
Lattice="16.28999089631971 0.0 0.0 0.0 16.28999089631971 0.0 0.0 0.0 34.32429715621058" Properties=species:S:1:pos:R:3:initial_magmoms:R:1 pbc="T T T"
Si      -1.35531171       1.35562122       1.35570752       0.00000000
Si       1.35853713       1.35583297      -1.35759536       0.00000000
Si      -1.35689184      -1.35941679      -1.35718347       0.00000000
Si       1.35646830      -1.35925389       1.35992941       0.00000000
Si      -2.71492398      -0.01510083       2.69871505       0.00000000
Si      -2.71322982       2.71052635       0.00054919       0.00000000
Si       0.00053757       2.71361168      -2.71412667       0.00000000
Si       2.71482624       2.71292424       0.00000000       0.00000000
Si      -2.71409319      -0.00203625      -2.71422964       0.00000000
Si       2.71606428      -0.00242721      -2.71426396       0.00000000
