10
Lattice="16.28999089631971 0.0 0.0 0.0 16.28999089631971 0.0 0.0 0.0 34.32429715621058" Properties=species:S:1:pos:R:3:initial_magmoms:R:1 pbc="T T T"
Si       0.34197597       1.10402217      -2.08829141       0.00000000
Si      -2.17124523      -0.18772596       0.99547382       0.00000000
Si       0.84455505      -2.23112727       0.22379454       0.00000000
Si       0.65847438       2.07570438       1.15817108       0.00000000
Si      -1.43865135       3.00751911       0.25750102       0.00000000
Si      -0.56847213      -0.67491099      -3.30625545       0.00000000
Si      -2.37794904      -1.69940538      -1.80127147       0.00000000
Si       1.55305602       1.01501361       3.13590386       0.00000000
Si      -3.34309896       1.49436315      -0.03995350       0.00000000
Si       0.32612580      -2.74724334       2.58444940       0.00000000
