10
Lattice="16.28999089631971 0.0 0.0 0.0 16.28999089631971 0.0 0.0 0.0 34.32429715621058" Properties=species:S:1:pos:R:3:initial_magmoms:R:1 pbc="T T T"
Si       0.91044810       1.77893316       1.21796404       0.00000000
Si      -1.17918423       1.51079976      -1.35653131       0.00000000
Si       1.54082223      -1.19364975      -1.33332807       0.00000000
Si      -1.80947691      -1.02449439       1.50498397       0.00000000
Si       0.56847213       0.67491099       3.30625545       0.00000000
Si      -3.29633037       0.95775426       1.25479403       0.00000000
Si      -2.53412127       0.16948116      -2.69730775       0.00000000
Si       0.17832663      -2.55046014      -2.69747937       0.00000000
Si      -2.63730213      -2.69200395       0.04578864       0.00000000
Si      -2.48668479       2.85449670      -0.00017162       0.00000000
