10
Lattice="16.28999089631971 0.0 0.0 0.0 16.28999089631971 0.0 0.0 0.0 34.32429715621058" Properties=species:S:1:pos:R:3:initial_magmoms:R:1 pbc="T T T"
Si       0.48654972      -2.30236344       0.20062563       0.00000000
Si      -2.23402689       0.48889941       0.70807632       0.00000000
Si       1.40357898       1.19453171       1.59017693       0.00000000
Si       0.20403225       0.57640114      -2.38375512       0.00000000
Si      -1.08214470      -3.33213579      -1.22959998       0.00000000
Si       2.48034798       1.16611218      -2.55815697       0.00000000
Si       2.80974807      -2.53794942      -0.43310422       0.00000000
Si       1.60837686       3.36462524       0.82306278       0.00000000
Si      -0.15242553      -2.99501424       2.41430376       0.00000000
Si      -2.50654230       2.79862919       0.98431842       0.00000000
