10
Lattice="16.28999089631971 0.0 0.0 0.0 16.28999089631971 0.0 0.0 0.0 34.32429715621058" Properties=species:S:1:pos:R:3:initial_magmoms:R:1 pbc="T T T"
Si      -1.34568432      -1.35882383       1.37665565       0.00000000
Si       1.37181348       1.35492075       1.38286835       0.00000000
Si       1.28611179      -1.41942752      -1.44018653       0.00000000
Si      -1.42278489       1.36821339      -1.38170819       0.00000000
Si       2.70286938      -2.71052247       0.02771689       0.00000000
Si       2.71565703       2.69996976       0.01358213       0.00000000
Si      -2.71507059      -2.72045240      -0.00733854       0.00000000
Si      -2.70399339      -0.00289962       2.73885047       0.00000000
Si       0.01163106       2.71179630       2.73840425       0.00000000
Si      -2.71135647       2.73895173       0.01855573       0.00000000
