10
Lattice="16.28999089631971 0.0 0.0 0.0 16.28999089631971 0.0 0.0 0.0 34.32429715621058" Properties=species:S:1:pos:R:3:initial_magmoms:R:1 pbc="T T T"
Si       1.35628911       1.35709127       1.35759536       0.00000000
Si      -1.35853713      -1.35583297       1.35759536       0.00000000
Si      -1.35799956       1.35777871      -1.35653131       0.00000000
Si       1.35752715      -1.35826018      -1.35666860       0.00000000
Si       0.00052128       2.71178722       2.71340586       0.00000000
Si      -2.71384884      -0.00021175       2.71330288       0.00000000
Si      -2.71404432       0.00103034      -2.71471018       0.00000000
Si      -0.00083079      -2.71518460      -2.71378342       0.00000000
Si      -0.00053757       2.71527328      -2.71388640       0.00000000
Si       2.71461447       2.71462168       0.00037757       0.00000000
