10
Lattice="16.28999089631971 0.0 0.0 0.0 16.28999089631971 0.0 0.0 0.0 34.32429715621058" Properties=species:S:1:pos:R:3:initial_magmoms:R:1 pbc="T T T"
Si       1.35907470      -1.35798502      -1.35340779       0.00000000
Si      -1.35764118      -1.35583474       1.35766401       0.00000000
Si       1.35767376       1.35915670       1.35745806       0.00000000
Si      -1.35739683       1.36177451      -1.36174860       0.00000000
Si       2.69115687       0.01007587      -2.71068737       0.00000000
Si       2.71262709      -2.71093468       0.00123568       0.00000000
Si      -0.00003258      -2.71319899       2.71495045       0.00000000
Si      -2.71599912      -2.71275916       0.00054919       0.00000000
Si       2.71446786       0.00193825       2.71484748       0.00000000
Si      -2.71516833       0.00242544       2.71433261       0.00000000
