10
Lattice="16.28999089631971 0.0 0.0 0.0 16.28999089631971 0.0 0.0 0.0 34.32429715621058" Properties=species:S:1:pos:R:3:initial_magmoms:R:1 pbc="T T T"
Si      -1.05577608      -1.63189962      -1.30761916       0.00000000
Si       2.27571300       0.32081526      -0.79790306       0.00000000
Si       0.39265416      -1.18068291       2.26386028       0.00000000
Si      -1.16053870       2.14666362      -0.99447842       0.00000000
Si       0.19697868      -3.42841783      -0.42994639       0.00000000
Si       2.69754255       2.37195432       0.26961750       0.00000000
Si       1.90794996       0.80892882      -3.05002443       0.00000000
Si       0.45100494       2.64108141      -2.73221558       0.00000000
Si       1.53518589       0.32663079       3.75031397       0.00000000
Si      -0.71617356      -1.87300791      -3.67654617       0.00000000
