10
Lattice="16.28999089631971 0.0 0.0 0.0 16.28999089631971 0.0 0.0 0.0 34.32429715621058" Properties=species:S:1:pos:R:3:initial_magmoms:R:1 pbc="T T T"
Si      -0.20479788      -2.17009353       0.76711415       0.00000000
Si       1.09714779      -0.18580374      -2.07099195       0.00000000
Si      -2.20709952       0.71348571      -0.56690041       0.00000000
Si       1.46818512       1.34452773       1.36775536       0.00000000
Si       0.01537776       1.51899363      -3.24062735       0.00000000
Si      -1.08261711      -1.81858139       2.96112445       0.00000000
Si       3.54213018       0.85134798       0.35271667       0.00000000
Si       2.07357039      -2.80885864       1.14718730       0.00000000
Si      -2.64991059       2.63327850       0.68223011       0.00000000
Si       3.11570685       0.98207523      -1.94756171       0.00000000
