10
Lattice="16.28999089631971 0.0 0.0 0.0 16.28999089631971 0.0 0.0 0.0 34.32429715621058" Properties=species:S:1:pos:R:3:initial_magmoms:R:1 pbc="T T T"
Si       1.34384355       1.34504901      -1.36928622       0.00000000
Si       1.35412254      -1.35791811       1.35587914       0.00000000
Si      -1.36018242       1.35687555       1.35553590       0.00000000
Si      -1.37181348      -1.35492075      -1.38286835       0.00000000
Si       2.71210581      -0.00105885       2.71340586       0.00000000
Si       2.71046052      -2.71622718      -0.00497703       0.00000000
Si       2.71140534       2.71529865      -0.00024027       0.00000000
Si      -0.00299736       2.71397916       2.71337153       0.00000000
Si      -0.00242721      -2.71636239       2.71299396       0.00000000
Si      -2.71749780      -2.71374458      -0.00621270       0.00000000
