10
Lattice="16.28999089631971 0.0 0.0 0.0 16.28999089631971 0.0 0.0 0.0 34.32429715621058" Properties=species:S:1:pos:R:3:initial_magmoms:R:1 pbc="T T T"
Si       1.93691358       0.66660309      -1.16900075       0.00000000
Si       1.41687162      -1.27988901       1.43350015       0.00000000
Si      -1.28699145       1.45256301       1.41783453       0.00000000
Si      -1.32382314      -1.38385179      -1.47877534       0.00000000
Si       1.33286409       0.15654690      -3.35919868       0.00000000
Si       2.63912661       2.61970893       0.09682890       0.00000000
Si      -2.72157030      -2.61164538       0.03820983       0.00000000
Si       0.07302807      -2.62493802       2.80278637       0.00000000
Si      -2.65259844       2.79417483      -0.08233717       0.00000000
Si      -2.64704355       0.08721666       2.79973151       0.00000000
