10
Lattice="16.28999089631971 0.0 0.0 0.0 16.28999089631971 0.0 0.0 0.0 34.32429715621058" Properties=species:S:1:pos:R:3:initial_magmoms:R:1 pbc="T T T"
Si       1.35718506      -1.35726651      -1.35666860       0.00000000
Si       1.35705474       1.35700587       1.35725212       0.00000000
Si      -1.35718506       1.35760860      -1.35677158       0.00000000
Si      -1.35612621      -1.35744570       1.35883104       0.00000000
Si       0.00003258       2.71425609      -2.71392072       0.00000000
Si      -0.00037467      -2.71432125      -2.71395504       0.00000000
Si      -2.71482624      -0.00140094      -2.71457288       0.00000000
Si       2.71524978       0.00037467      -2.71440126       0.00000000
Si       2.71477737      -2.71497285       0.00030892       0.00000000
Si       2.71464705       2.71526607       0.00037757       0.00000000
