10
Lattice="16.28999089631971 0.0 0.0 0.0 16.28999089631971 0.0 0.0 0.0 34.32429715621058" Properties=species:S:1:pos:R:3:initial_magmoms:R:1 pbc="T T T"
Si      -2.13234471       0.87490332      -0.29415939       0.00000000
Si       0.44862660      -1.05642279      -2.03141601       0.00000000
Si       1.71727551       1.82053782       0.01592648       0.00000000
Si      -0.69222726      -1.25775090       2.08918384       0.00000000
Si      -2.10701376       2.19377430       1.58900990       0.00000000
Si       2.96491032       0.57974481       1.65988961       0.00000000
Si      -1.54077336       0.66015225       3.22768709       0.00000000
Si       1.41402087       0.78830568      -3.29997410       0.00000000
Si       1.17893988      -2.42141076       3.00578038       0.00000000
Si      -1.34188875      -1.83215259      -3.34610598       0.00000000
