10
Lattice="16.28999089631971 0.0 0.0 0.0 16.28999089631971 0.0 0.0 0.0 34.32429715621058" Properties=species:S:1:pos:R:3:initial_magmoms:R:1 pbc="T T T"
Si       1.08177003      -1.70479737       1.16963540       0.00000000
Si      -2.32160193      -0.38188647       0.27981183       0.00000000
Si       1.67762565       0.39956112      -1.63651475       0.00000000
Si      -0.02650383       2.22909102       0.82838305       0.00000000
Si       3.10032909      -0.53691840       1.29306565       0.00000000
Si      -1.42016220       2.97243630      -0.98280815       0.00000000
Si       3.26878398       1.31852889      -0.16966510       0.00000000
Si      -2.22247728      -0.80550792       2.67372695       0.00000000
Si      -0.01537776      -1.51899363       3.24062735       0.00000000
Si      -2.62640412      -2.43861300      -0.84863440       0.00000000
