10
Lattice="16.28999089631971 0.0 0.0 0.0 16.28999089631971 0.0 0.0 0.0 34.32429715621058" Properties=species:S:1:pos:R:3:initial_magmoms:R:1 pbc="T T T"
Si      -1.22885176       1.42317585       1.35166069       0.00000000
Si       1.50116260      -1.28894625       1.31763499       0.00000000
Si      -1.60217104      -1.06906383      -1.39525055       0.00000000
Si       0.70564045       1.99648611      -1.25451086       0.00000000
Si      -0.12551119       1.20580209      -3.45567061       0.00000000
Si      -2.55080290      -2.68641648      -0.01995959       0.00000000
Si      -3.42572251       0.64418805      -1.28150213       0.00000000
Si      -2.57820268       0.06794559       2.69004473       0.00000000
Si      -2.72350948       2.59729389      -0.01567248       0.00000000
Si       0.13746316      -2.65132782       2.68970148       0.00000000
