10
Lattice="16.28999089631971 0.0 0.0 0.0 16.28999089631971 0.0 0.0 0.0 34.32429715621058" Properties=species:S:1:pos:R:3:initial_magmoms:R:1 pbc="T T T"
Si       0.28984797       1.87708041      -1.41783453       0.00000000
Si       0.71249202      -1.48235742      -1.73090662       0.00000000
Si       1.57623669      -0.30333609       1.77116905       0.00000000
Si      -2.34997911      -0.33816411       0.49190178       0.00000000
Si      -0.32809689      -0.62952705      -3.60964808       0.00000000
Si       1.09418301      -2.53602720       2.44032159       0.00000000
Si      -2.52485226      -2.66848119       0.46238287       0.00000000
Si      -0.94868073       1.61710830      -3.43404488       0.00000000
Si       3.83805432      -0.04199562       1.04496949       0.00000000
Si      -0.38936358       3.94418367      -0.50271394       0.00000000
