10
Lattice="16.28999089631971 0.0 0.0 0.0 16.28999089631971 0.0 0.0 0.0 34.32429715621058" Properties=species:S:1:pos:R:3:initial_magmoms:R:1 pbc="T T T"
Si      -0.48205368      -2.23269111       0.66915255       0.00000000
Si       2.26181763       0.26134047      -0.72619956       0.00000000
Si      -1.57623669       0.30333609      -1.77116905       0.00000000
Si      -0.19383471       1.46522034       1.87870713       0.00000000
Si      -1.36490652       0.03824892       3.34308544       0.00000000
Si       2.00388177       2.34743787      -1.88646443       0.00000000
Si      -0.22996593      -2.02790952       3.00883525       0.00000000
Si      -0.86374467      -1.17902133      -3.50207567       0.00000000
Si       2.81424411      -1.45600020      -2.31541541       0.00000000
Si      -1.28638872       2.18041650      -3.18900358       0.00000000
