10
Lattice="16.28999089631971 0.0 0.0 0.0 16.28999089631971 0.0 0.0 0.0 34.32429715621058" Properties=species:S:1:pos:R:3:initial_magmoms:R:1 pbc="T T T"
Si      -1.97180676       0.87641829       0.96640113       0.00000000
Si       1.10219769       1.06637598      -1.80796471       0.00000000
Si      -0.12696426      -2.12341779      -1.04737219       0.00000000
Si       1.29463146      -0.08122194       2.12216951       0.00000000
Si       3.05738865       0.24974199      -0.86813061       0.00000000
Si      -2.23855551      -2.72186352      -0.24613967       0.00000000
Si       3.09104379       1.16973603       1.35615374       0.00000000
Si      -1.44041067       3.21507585       0.99063409       0.00000000
Si       1.68617790      -3.31890831      -0.13300673       0.00000000
Si      -3.66616224       0.67214169      -0.64392417       0.00000000
