10
Lattice="16.28999089631971 0.0 0.0 0.0 16.28999089631971 0.0 0.0 0.0 34.32429715621058" Properties=species:S:1:pos:R:3:initial_magmoms:R:1 pbc="T T T"
Si      -1.35824391       1.35594702       1.36178293       0.00000000
Si       1.35609363      -1.36067112       1.36119941       0.00000000
Si       1.37937204       1.34475579      -1.36834574       0.00000000
Si      -1.36014984      -1.36966320      -1.37594857       0.00000000
Si       2.71349046      -2.71319724       0.00202513       0.00000000
Si       2.71682991       2.71072116       0.00782594       0.00000000
Si      -2.71583622       2.71270854       0.00346676       0.00000000
Si      -2.71445157      -2.71430496       0.00127000       0.00000000
Si       0.00011403       2.71287144       2.71889775       0.00000000
Si       2.71492398      -0.00177561       2.71869180       0.00000000
