10
Lattice="16.28999089631971 0.0 0.0 0.0 16.28999089631971 0.0 0.0 0.0 34.32429715621058" Properties=species:S:1:pos:R:3:initial_magmoms:R:1 pbc="T T T"
Si       1.35738054      -1.35705330      -1.35701185       0.00000000
Si       1.35824391       1.35550930       1.35776698       0.00000000
Si      -1.35758905       1.35806031      -1.35673725       0.00000000
Si      -1.35792951      -1.35827505       1.35711482       0.00000000
Si       0.00161271      -2.71143648       2.71515640       0.00000000
Si       2.71458189      -2.71443384       0.00003432       0.00000000
Si       2.71616202       0.00060417       2.71292531       0.00000000
Si      -0.00115659       2.71481857      -2.71429829       0.00000000
Si      -2.71528216      -2.71467819       0.00017162       0.00000000
Si       2.71511946       2.71516066      -0.00013730       0.00000000
