10
Lattice="16.28999089631971 0.0 0.0 0.0 16.28999089631971 0.0 0.0 0.0 34.32429715621058" Properties=species:S:1:pos:R:3:initial_magmoms:R:1 pbc="T T T"
Si      -1.35653346      -1.35798327       1.35721779       0.00000000
Si       1.35835794       1.35692442       1.35711482       0.00000000
Si      -1.35759231       1.35676152      -1.35831617       0.00000000
Si       1.35824391      -1.35594702      -1.36178293       0.00000000
Si       2.71599912       2.71275916      -0.00054919       0.00000000
Si      -2.71459818      -0.00006516       2.71419531       0.00000000
Si       0.00083079       2.71518460       2.71378342       0.00000000
Si      -2.71321353       2.71621493      -0.00092676       0.00000000
Si      -2.71469592      -2.71503801       0.00000000       0.00000000
Si       0.00063531      -2.71542897       2.71446991       0.00000000
