10
Lattice="16.28999089631971 0.0 0.0 0.0 16.28999089631971 0.0 0.0 0.0 34.32429715621058" Properties=species:S:1:pos:R:3:initial_magmoms:R:1 pbc="T T T"
Si      -1.44042696       1.30565979       1.33284753       0.00000000
Si       1.34446257       1.36690391      -1.37551265       0.00000000
Si      -1.37569050      -1.34863281      -1.37300698       0.00000000
Si       1.47273003      -1.29358890       1.46331425       0.00000000
Si       2.69099397       2.69996391       0.00501135       0.00000000
Si       2.69606016      -2.69961138      -0.01493108       0.00000000
Si       2.69773803       0.00799839      -2.73249018       0.00000000
Si      -2.72707632      -2.70892926      -0.01101811       0.00000000
Si      -0.01651806      -2.70834282      -2.73249018       0.00000000
Si      -0.01733256       2.72354532      -2.73293639       0.00000000
