10
Lattice="16.28999089631971 0.0 0.0 0.0 16.28999089631971 0.0 0.0 0.0 34.32429715621058" Properties=species:S:1:pos:R:3:initial_magmoms:R:1 pbc="T T T"
Si       1.46552985       0.97858917       1.53144802       0.00000000
Si      -0.31609116      -2.31995664       0.02004540       0.00000000
Si      -2.09476368       0.75134367       0.78877279       0.00000000
Si       0.53403507       1.19716839      -1.99455170       0.00000000
Si       0.71838900       3.14210367       0.83806251       0.00000000
Si       1.63909980      -3.13659063       0.95987951       0.00000000
Si      -3.52416231      -0.09601326      -1.03683462       0.00000000
Si      -1.50260589       3.02446295       1.65638853       0.00000000
Si       0.84846465       0.20292453       3.65952131       0.00000000
Si       0.31021047       3.45476758      -1.48088830       0.00000000
