10
Lattice="16.28999089631971 0.0 0.0 0.0 16.28999089631971 0.0 0.0 0.0 34.32429715621058" Properties=species:S:1:pos:R:3:initial_magmoms:R:1 pbc="T T T"
Si      -1.31147532      -1.28212074       1.56606894       0.00000000
Si       1.25170731       1.40920785       1.52018763       0.00000000
Si       1.79846487      -0.94724721      -1.37252644       0.00000000
Si      -1.64600676       0.11481192      -2.09941248       0.00000000
Si      -1.66241079      -2.27944341      -1.97155441       0.00000000
Si       2.75807619      -2.45819358       0.16980239       0.00000000
Si      -2.06384526      -3.17832561       0.20491617       0.00000000
Si       0.60442416      -2.72038113      -2.71210153       0.00000000
Si      -0.00107514      -2.61591336       2.96919894       0.00000000
Si       3.26467890       2.26433348       0.49501091       0.00000000
