10
Lattice="16.28999089631971 0.0 0.0 0.0 16.28999089631971 0.0 0.0 0.0 34.32429715621058" Properties=species:S:1:pos:R:3:initial_magmoms:R:1 pbc="T T T"
Si       0.40143447       0.89888220      -2.17647057       0.00000000
Si       0.75236994       1.89620487       1.36115277       0.00000000
Si       1.62321705      -1.89001467      -0.15051213       0.00000000
Si      -1.98806418      -0.76382181       1.30917889       0.00000000
Si       2.06277012       0.56241225       2.76428277       0.00000000
Si      -0.67675176      -2.15200674       2.75667993       0.00000000
Si       3.40487064      -0.83452041       1.16503736       0.00000000
Si       0.67562775      -3.50899632       1.25320280       0.00000000
Si       2.06384526       3.17832561      -0.20491617       0.00000000
Si      -1.03889475       0.08376318      -3.75789480       0.00000000
