10
Lattice="16.28999089631971 0.0 0.0 0.0 16.28999089631971 0.0 0.0 0.0 34.32429715621058" Properties=species:S:1:pos:R:3:initial_magmoms:R:1 pbc="T T T"
Si      -1.67800032       1.66556942       0.15751600       0.00000000
Si      -0.89368569      -1.77962616       1.30162304       0.00000000
Si       1.87101143       0.97517641       1.14604121       0.00000000
Si      -0.88497054       1.98302894      -2.09953369       0.00000000
Si      -0.28999458      -2.70618507      -1.61085840       0.00000000
Si       0.48772260       2.22770474       2.64232397       0.00000000
Si      -2.27421432      -0.48065116       2.65059613       0.00000000
Si      -2.18460303      -3.05695764      -0.16769252       0.00000000
Si      -1.47290922       0.06589631      -3.47902796       0.00000000
Si      -0.86646510       3.54572864       1.29550301       0.00000000
