10
Lattice="16.28999089631971 0.0 0.0 0.0 16.28999089631971 0.0 0.0 0.0 34.32429715621058" Properties=species:S:1:pos:R:3:initial_magmoms:R:1 pbc="T T T"
Si       1.28707290      -1.32408378       1.40427643       0.00000000
Si      -1.34452773      -1.35795069      -1.34221807       0.00000000
Si      -1.39916439       1.20182733       1.44735345       0.00000000
Si       1.36770840       1.35408996      -1.34527293       0.00000000
Si       0.35966691       2.10681828       2.80982286       0.00000000
Si      -0.42393096      -2.19141225       2.78013233       0.00000000
Si       2.25094635       0.45375795       2.74903450       0.00000000
Si      -2.36455866      -0.64290114       2.71591153       0.00000000
Si      -2.70039330       2.70573642       0.03593756       0.00000000
Si      -2.70534546      -0.00289962      -2.70146099       0.00000000
