10
Lattice="16.28999089631971 0.0 0.0 0.0 16.28999089631971 0.0 0.0 0.0 34.32429715621058" Properties=species:S:1:pos:R:3:initial_magmoms:R:1 pbc="T T T"
Si       0.50062332      -2.25998405       0.24500697       0.00000000
Si      -0.60476625       0.81544482       2.14279842       0.00000000
Si       1.84700322       1.60878411       0.12638213       0.00000000
Si      -1.49558490      -0.07578108      -2.00639359       0.00000000
Si       0.21541896       0.79154739      -3.38224948       0.00000000
Si       1.17929241       2.56938912      -2.03749142       0.00000000
Si      -0.91992888       3.10889763       1.62069124       0.00000000
Si      -0.17607861      -2.82068585       2.44176322       0.00000000
Si       2.77201133      -2.67156719      -0.16671320       0.00000000
Si      -2.70589932       0.10774206       2.96658201       0.00000000
