10
Lattice="16.28999089631971 0.0 0.0 0.0 16.28999089631971 0.0 0.0 0.0 34.32429715621058" Properties=species:S:1:pos:R:3:initial_magmoms:R:1 pbc="T T T"
Si       0.32241168       0.86956020       2.14053302       0.00000000
Si       2.10113307       0.70770276      -0.82378359       0.00000000
Si      -1.87116714       1.16365986      -0.91659654       0.00000000
Si       0.24324228      -2.36342555      -0.26762669       0.00000000
Si      -3.62755494      -0.39195369      -0.61526337       0.00000000
Si       1.78597044       3.00115557      -1.34589077       0.00000000
Si       3.50152151       0.69882471       1.25252863       0.00000000
Si       0.78402141      -0.86790514       3.61325213       0.00000000
Si       2.03522373       2.52449388       2.06076330       0.00000000
Si       2.52982071      -2.92842791      -0.52481880       0.00000000
