10
Lattice="16.28999089631971 0.0 0.0 0.0 16.28999089631971 0.0 0.0 0.0 34.32429715621058" Properties=species:S:1:pos:R:3:initial_magmoms:R:1 pbc="T T T"
Si      -0.85252086       1.91640121       0.97045140       0.00000000
Si       1.16657577      -0.89272295       1.80823931       0.00000000
Si      -1.82884572      -1.33858530      -0.58378797       0.00000000
Si       1.27868355      -0.17725801      -1.97430035       0.00000000
Si      -0.35065854       0.30432652      -3.59203970       0.00000000
Si      -1.08170487      -3.50209980       0.10959754       0.00000000
Si       1.63354491      -2.52639396      -2.16909085       0.00000000
Si       1.75451445       1.02440968       3.18773358       0.00000000
Si      -2.23702425      -1.02592139      -2.90273878       0.00000000
Si      -2.65033413       2.84823808      -0.31743128       0.00000000
