10
Lattice="16.28999089631971 0.0 0.0 0.0 16.28999089631971 0.0 0.0 0.0 34.32429715621058" Properties=species:S:1:pos:R:3:initial_magmoms:R:1 pbc="T T T"
Si       0.85252086      -1.91640121      -0.97045140       0.00000000
Si      -1.79781327       0.93183687      -1.28788267       0.00000000
Si       1.70000811       1.26921906       1.17982973       0.00000000
Si       2.60703531      -0.89199153       2.21728219       0.00000000
Si       2.01909663      -2.80912416       0.83778791       0.00000000
Si      -1.42682481       3.18765978      -0.69729849       0.00000000
Si      -0.97632486      -3.25498651      -1.55423937       0.00000000
Si       3.32495190       2.10642732      -0.25605940       0.00000000
Si       2.13120441      -2.09365922      -2.94475175       0.00000000
Si      -4.09175478       0.20266389      -1.17650027       0.00000000
