10
Lattice="16.28999089631971 0.0 0.0 0.0 16.28999089631971 0.0 0.0 0.0 34.32429715621058" Properties=species:S:1:pos:R:3:initial_magmoms:R:1 pbc="T T T"
Si      -0.79302978      -0.31745952       2.25704969       0.00000000
Si      -0.58793868      -1.91713263      -1.37949427       0.00000000
Si      -0.90702720       2.16121059      -1.03745246       0.00000000
Si       0.88497054      -1.98302894       2.09953369       0.00000000
Si       2.93697527      -0.31760613      -1.69284096       0.00000000
Si      -2.60703531       0.89199153      -2.21728219       0.00000000
Si       0.01850544       1.56269970       3.39503670       0.00000000
Si      -1.75451445      -1.02440968      -3.18773358       0.00000000
Si       0.96713730       3.18005235       2.01974575       0.00000000
Si       0.71791659       2.99841885      -2.47334159       0.00000000
