10
Lattice="16.28999089631971 0.0 0.0 0.0 16.28999089631971 0.0 0.0 0.0 34.32429715621058" Properties=species:S:1:pos:R:3:initial_magmoms:R:1 pbc="T T T"
Si      -0.60404949      -0.51005619      -2.19019794       0.00000000
Si      -1.93691358      -0.66660309       1.16900075       0.00000000
Si       0.70221303       1.95310584       1.26582964       0.00000000
Si       1.82355147      -1.71325188      -0.11374842       0.00000000
Si       1.05254577       1.17364563      -2.82773779       0.00000000
Si      -0.52004196      -1.94649210       2.60250090       0.00000000
Si       2.19687075       0.77898780       2.63316281       0.00000000
Si       0.87491961      -3.33060453       1.26154254       0.00000000
Si       3.42572251      -0.64418805       1.28150213       0.00000000
Si      -3.26073672      -2.05045488      -0.30977459       0.00000000
