10
Lattice="16.28999089631971 0.0 0.0 0.0 16.28999089631971 0.0 0.0 0.0 34.32429715621058" Properties=species:S:1:pos:R:3:initial_magmoms:R:1 pbc="T T T"
Si       1.35772263       1.35537687      -1.35728644       0.00000000
Si      -1.35718506      -1.35710361      -1.35783563       0.00000000
Si      -1.35778779       1.35778779       1.35694320       0.00000000
Si       1.35811359      -1.35782037       1.35701185       0.00000000
Si       0.00299736      -2.71397916      -2.71337153       0.00000000
Si       2.71440270       0.00131949      -2.71361180       0.00000000
Si       2.71555929      -0.00114030       2.71357748       0.00000000
Si      -2.71538010      -0.00047241       2.71381775       0.00000000
Si      -0.00019548      -2.71523349       2.71436694       0.00000000
Si       2.71498914       2.71480995      -0.00027459       0.00000000
