10
Lattice="16.28999089631971 0.0 0.0 0.0 16.28999089631971 0.0 0.0 0.0 34.32429715621058" Properties=species:S:1:pos:R:3:initial_magmoms:R:1 pbc="T T T"
Si      -1.35744570      -1.35668007      -1.35656563       0.00000000
Si       1.35729909      -1.35710361       1.35697752       0.00000000
Si       1.35762379       1.35809730      -1.35649698       0.00000000
Si      -1.35573525       1.35777150       1.36329320       0.00000000
Si      -0.01040931      -2.71119357       2.70225045       0.00000000
Si       2.71271898      -2.71265967       0.00075513       0.00000000
Si       2.71398472       0.00130320      -2.71333721       0.00000000
Si      -0.00045612      -2.71389771      -2.71354315       0.00000000
Si      -2.71555929       0.00114030      -2.71357748       0.00000000
Si      -0.00057015       2.71595025      -2.71385207       0.00000000
