10
Lattice="16.28999089631971 0.0 0.0 0.0 16.28999089631971 0.0 0.0 0.0 34.32429715621058" Properties=species:S:1:pos:R:3:initial_magmoms:R:1 pbc="T T T"
Si      -1.36166481      -1.35060390      -1.37908238       0.00000000
Si       1.35506736       1.36322865      -1.37489482       0.00000000
Si      -1.39815441       1.30844538       1.41079805       0.00000000
Si       1.30122891      -1.50390909       1.41141589       0.00000000
Si       2.70039330      -2.70573642      -0.03593756       0.00000000
Si      -2.70850572      -2.70668124      -0.03367215       0.00000000
Si       2.71220355       2.71464705       0.01513702       0.00000000
Si      -2.72800485       2.71195920      -0.01122405       0.00000000
Si      -0.00495216      -2.70863604      -2.73739855       0.00000000
Si       2.71080261       0.00545715      -2.73818801       0.00000000
