10
Lattice="16.28999089631971 0.0 0.0 0.0 16.28999089631971 0.0 0.0 0.0 34.32429715621058" Properties=species:S:1:pos:R:3:initial_magmoms:R:1 pbc="T T T"
Si       0.78407028      -1.18190466      -1.92538820       0.00000000
Si      -2.13045507      -0.18252945       1.10925893       0.00000000
Si       1.03332357      -1.65856635       1.48126587       0.00000000
Si       0.09593181       2.38052286      -0.71051335       0.00000000
Si      -0.46356453       0.05888835      -3.56935133       0.00000000
Si      -0.67948848      -3.31350003       1.56103558       0.00000000
Si       3.11391073      -0.75790854      -2.07737627       0.00000000
Si      -3.72161340      -1.10149722      -0.35759073       0.00000000
Si       1.09923291      -3.47535747      -1.40328102       0.00000000
Si       2.29385421       2.97862650      -1.36888806       0.00000000
