10
Lattice="16.28999089631971 0.0 0.0 0.0 16.28999089631971 0.0 0.0 0.0 34.32429715621058" Properties=species:S:1:pos:R:3:initial_magmoms:R:1 pbc="T T T"
Si      -0.42642333       0.13072725      -2.30027838       0.00000000
Si       1.84357188       1.35493704       0.51637501       0.00000000
Si      -2.07394506       0.49317975       1.01503868       0.00000000
Si       0.41780592      -2.32995870       0.10516971       0.00000000
Si      -2.44498239      -1.03715172      -2.42370863       0.00000000
Si      -3.54213018      -0.85134798      -0.35271667       0.00000000
Si       1.19299815      -1.14479604      -3.31123247       0.00000000
Si       1.00683603       3.55366350       0.74957442       0.00000000
Si       1.65460788      -2.88226138      -1.83851336       0.00000000
Si       3.45637962       1.22131017      -1.20684296       0.00000000
