10
Lattice="16.28999089631971 0.0 0.0 0.0 16.28999089631971 0.0 0.0 0.0 34.32429715621058" Properties=species:S:1:pos:R:3:initial_magmoms:R:1 pbc="T T T"
Si       1.35668007      -1.35405738      -1.35632536       0.00000000
Si      -1.35772263      -1.35537687       1.35728644       0.00000000
Si       1.35726651       1.35943308       1.35701185       0.00000000
Si      -1.35909099       1.36321236      -1.35975779       0.00000000
Si       2.70603099       0.00117288      -2.69470940       0.00000000
Si       2.71441086      -2.71280628      -0.00054919       0.00000000
Si      -2.71490769      -2.71248048      -0.00054919       0.00000000
Si       0.00039096      -2.71319724       2.71429829       0.00000000
Si      -2.71551042       0.00241092       2.71422964       0.00000000
Si       2.71546045       0.00158013       2.71436694       0.00000000
