10
Lattice="16.28999089631971 0.0 0.0 0.0 16.28999089631971 0.0 0.0 0.0 34.32429715621058" Properties=species:S:1:pos:R:3:initial_magmoms:R:1 pbc="T T T"
Si       1.35616495      -1.35713619       1.36264103       0.00000000
Si      -1.36218609       1.36127385       1.36421995       0.00000000
Si       1.36224641       1.36858806      -1.36857571       0.00000000
Si      -1.37901366      -1.35700587      -1.37669684       0.00000000
Si       2.71357421      -2.71173114       0.00614405       0.00000000
Si      -2.71907793      -2.70969489       0.00377567       0.00000000
Si      -2.71573848       2.71422351       0.00957648       0.00000000
Si       2.71274179       2.71977840       0.00628135       0.00000000
Si       2.71284605       0.00180819       2.72047666       0.00000000
Si      -0.00272043      -2.71347417       2.72054531       0.00000000
