10
Lattice="16.28999089631971 0.0 0.0 0.0 16.28999089631971 0.0 0.0 0.0 34.32429715621058" Properties=species:S:1:pos:R:3:initial_magmoms:R:1 pbc="T T T"
Si      -1.35355239       1.35294966      -1.35464347       0.00000000
Si       1.35927018       1.35534429       1.35642833       0.00000000
Si      -1.35545832      -1.35954711       1.35622239       0.00000000
Si       1.36218609      -1.36127385      -1.36421995       0.00000000
Si      -2.69101026      -0.01301571      -2.73081515       0.00000000
Si      -2.71262709       2.71093468      -0.00123568       0.00000000
Si      -2.71265967      -0.00226431       2.71371477       0.00000000
Si       0.00184077       2.71287293       2.71361180       0.00000000
Si       2.71643895       2.71138905      -0.00151027       0.00000000
Si       0.00192222      -2.71645524       2.71340586       0.00000000
