10
Lattice="16.28999089631971 0.0 0.0 0.0 16.28999089631971 0.0 0.0 0.0 34.32429715621058" Properties=species:S:1:pos:R:3:initial_magmoms:R:1 pbc="T T T"
Si      -1.35927018      -1.35534429      -1.35642833       0.00000000
Si       1.35716877       1.35604476      -1.35793860       0.00000000
Si      -1.35742941       1.35752864       1.35718347       0.00000000
Si       1.35763227      -1.35747828       1.35721779       0.00000000
Si      -2.71282257      -0.00239463      -2.71107180       0.00000000
Si      -2.71422351       2.71474709      -0.00020595       0.00000000
Si       2.71498492      -0.00107514       2.71416099       0.00000000
Si      -0.00035838      -2.71531494       2.71402369       0.00000000
Si      -2.71472850      -2.71489140      -0.00020595       0.00000000
Si       2.71565770       0.00316026      -2.71436694       0.00000000
