10
Lattice="16.28999089631971 0.0 0.0 0.0 16.28999089631971 0.0 0.0 0.0 34.32429715621058" Properties=species:S:1:pos:R:3:initial_magmoms:R:1 pbc="T T T"
Si      -1.35698958      -1.35648459      -1.35704617       0.00000000
Si       1.35799065       1.35783666      -1.35680590       0.00000000
Si      -1.35837423       1.35555606       1.35931158       0.00000000
Si       1.36054080      -1.35523026       1.35876239       0.00000000
Si      -2.71437012       0.00042354      -2.71422964       0.00000000
Si       0.00055386      -2.71477737      -2.71412667       0.00000000
Si       0.00035838       2.71531494      -2.71402369       0.00000000
Si       2.71534330       2.71423980       0.00013730       0.00000000
Si      -2.71555929      -2.71417464       0.00082378       0.00000000
Si       2.71546059      -2.71474479      -0.00041189       0.00000000
