10
Lattice="16.28999089631971 0.0 0.0 0.0 16.28999089631971 0.0 0.0 0.0 34.32429715621058" Properties=species:S:1:pos:R:3:initial_magmoms:R:1 pbc="T T T"
Si       1.37284694      -1.29715641      -1.44817723       0.00000000
Si      -1.31553153       1.44311481      -1.44014534       0.00000000
Si       1.98188117       0.87452865       1.13156974       0.00000000
Si      -1.81351683      -0.98797221       1.36391103       0.00000000
Si      -2.78239716      -2.62888020      -0.02783702       0.00000000
Si      -2.65460211       2.75838570       0.05169242       0.00000000
Si       2.64090941      -2.77522956      -0.07743566       0.00000000
Si       0.02974554      -2.63005308      -2.81994853       0.00000000
Si      -3.44263086       0.96135435       1.48284479       0.00000000
Si       3.46873463      -1.10772000       1.38175968       0.00000000
