10
Lattice="16.28999089631971 0.0 0.0 0.0 16.28999089631971 0.0 0.0 0.0 34.32429715621058" Properties=species:S:1:pos:R:3:initial_magmoms:R:1 pbc="T T T"
Si       0.06990039      -2.32121097      -0.05388918       0.00000000
Si       1.34894232       0.95110794       1.66002691       0.00000000
Si      -2.29780224       0.19398132       0.41271558       0.00000000
Si       0.55544013       0.89909397      -2.09900059       0.00000000
Si      -2.52162684       2.45158051       0.92637897       0.00000000
Si      -2.09272743      -2.70775638      -1.25675052       0.00000000
Si       0.60154083       3.22952575      -1.70660501       0.00000000
Si       0.93950946      -0.34575525       3.59674214       0.00000000
Si      -3.39382602      -0.64213551      -1.47697533       0.00000000
Si       3.57179005       0.58155300       1.11409866       0.00000000
