10
Lattice="16.28999089631971 0.0 0.0 0.0 16.28999089631971 0.0 0.0 0.0 34.32429715621058" Properties=species:S:1:pos:R:3:initial_magmoms:R:1 pbc="T T T"
Si      -1.28542761       1.33641531       1.49141557       0.00000000
Si       1.10475522       1.68451632      -1.28391963       0.00000000
Si       1.40737455      -1.37018448       1.46854528       0.00000000
Si      -2.07998865      -0.80363457      -1.09344400       0.00000000
Si       2.27028843       0.28437453      -2.92094925       0.00000000
Si      -0.78705135       3.35013624      -1.42420311       0.00000000
Si      -2.58758994       2.69770545       0.09743300       0.00000000
Si       2.80837971      -2.63270835       0.03470188       0.00000000
Si      -2.64695070      -0.01694160       2.85004753       0.00000000
Si       2.82543534       2.71681362       0.02220440       0.00000000
