10
Lattice="16.28999089631971 0.0 0.0 0.0 16.28999089631971 0.0 0.0 0.0 34.32429715621058" Properties=species:S:1:pos:R:3:initial_magmoms:R:1 pbc="T T T"
Si      -1.36753015      -1.36000323      -1.33731999       0.00000000
Si      -1.35740926       1.35459495       1.35649698       0.00000000
Si       1.35531660      -1.35769005       1.35711482       0.00000000
Si       1.36152309       1.35335691      -1.35863195       0.00000000
Si       2.71269714       2.71205694      -0.00116703       0.00000000
Si      -2.71357421       2.71173114      -0.00614405       0.00000000
Si       2.71243650      -2.71526607      -0.00254000       0.00000000
Si      -0.00072816       2.71353933       2.71433261       0.00000000
Si       2.71359309      -0.00083079       2.71446991       0.00000000
Si      -2.71629464      -0.00174303       2.71440126       0.00000000
