10
Lattice="16.28999089631971 0.0 0.0 0.0 16.28999089631971 0.0 0.0 0.0 34.32429715621058" Properties=species:S:1:pos:R:3:initial_magmoms:R:1 pbc="T T T"
Si      -1.91369903      -0.81968022      -0.93279762       0.00000000
Si       0.72944991       1.92081906      -1.03323057       0.00000000
Si       1.75233159      -1.44133920       0.39503856       0.00000000
Si      -0.39064235      -0.98345988       2.97193661       0.00000000
Si      -0.52305724      -2.01520332      -2.41358295       0.00000000
Si       2.20679001       0.70493346      -2.40719863       0.00000000
Si       0.82062504      -3.28720797      -0.91838141       0.00000000
Si       3.59233596      -0.54348327      -0.89020114       0.00000000
Si       1.95457194      -0.42653736       3.28761734       0.00000000
Si      -2.89187315      -2.61387711       0.37729289       0.00000000
