10
Lattice="16.28999089631971 0.0 0.0 0.0 16.28999089631971 0.0 0.0 0.0 34.32429715621058" Properties=species:S:1:pos:R:3:initial_magmoms:R:1 pbc="T T T"
Si       1.80368093       1.31370705       0.69094849       0.00000000
Si      -1.66686189      -0.66464829       1.50680316       0.00000000
Si       1.22292940      -1.96560027      -0.42919125       0.00000000
Si      -1.10239710       0.77675607      -1.92995333       0.00000000
Si       2.12682566      -1.07764866      -2.31864189       0.00000000
Si      -0.78503532      -2.79168246       1.84757498       0.00000000
Si       3.29084390       0.56433447      -1.09051785       0.00000000
Si      -0.59916642      -3.47112207      -0.36613748       0.00000000
Si      -2.43980610       2.46259188      -0.74730902       0.00000000
Si      -3.01909479      -0.62656227      -1.81445201       0.00000000
