10
Lattice="16.28999089631971 0.0 0.0 0.0 16.28999089631971 0.0 0.0 0.0 34.32429715621058" Properties=species:S:1:pos:R:3:initial_magmoms:R:1 pbc="T T T"
Si       2.30765606      -0.01153332      -0.17848644       0.00000000
Si      -0.44618839       2.07971172       0.92401060       0.00000000
Si      -0.92997234       0.35108208      -2.11465248       0.00000000
Si      -0.78166818      -2.10675312       0.71041038       0.00000000
Si       0.81560609      -3.36873942      -0.54235852       0.00000000
Si      -0.96007626      -1.62924435       3.00094065       0.00000000
Si      -3.15332928      -0.27127737      -1.61533665       0.00000000
Si       2.84812568      -2.23526493      -0.49529988       0.00000000
Si      -2.89539342      -2.35737477      -0.45507179       0.00000000
Si      -0.91097820       2.72326446      -2.43809051       0.00000000
