10
Lattice="10.86 0.0 0.0 0.0 10.86 0.0 0.0 0.0 10.86" Properties=species:S:1:pos:R:3:initial_magmoms:R:1 pbc="T T T"
Si      -0.72461178       0.29904096       2.25397128       0.00000000
Si      -0.14365608      -1.71274146      -1.72626216       0.00000000
Si      -0.86119800       2.28709428      -0.05580954       0.00000000
Si       2.71079718      -1.54356438       0.80786454       0.00000000
Si      -1.37045598      -3.01694058      -0.47180184       0.00000000
Si      -2.76087264       1.34943102      -1.58792748       0.00000000
Si      -1.37045598      -0.30194058      -3.18680184       0.00000000
Si      -0.20486304      -1.59598560       3.59292240       0.00000000
Si       1.34454402      -3.01694058       2.24319816       0.00000000
Si       3.14685876       1.37443074      -2.13715026       0.00000000
