10
Lattice="10.86 0.0 0.0 0.0 10.86 0.0 0.0 0.0 10.86" Properties=species:S:1:pos:R:3:initial_magmoms:R:1 pbc="T T T"
Si       1.55304516       1.03300320       1.28250084       0.00000000
Si      -1.16195484      -1.68199680       1.28250084       0.00000000
Si       1.55304516      -1.68199680      -1.43249916       0.00000000
Si      -1.51111470       1.45209060      -1.70652954       0.00000000
Si      -2.40984486       2.45098254      -0.11950344       0.00000000
Si       0.19554516       2.39050320       2.64000084       0.00000000
Si      -2.51945484      -0.32449680       2.64000084       0.00000000
Si       3.08760660       2.10048690       0.14649054       0.00000000
Si      -2.61083088      -0.38721330      -2.88570834       0.00000000
Si       2.91054516      -0.32449680       2.64000084       0.00000000
