10
Lattice="10.86 0.0 0.0 0.0 10.86 0.0 0.0 0.0 10.86" Properties=species:S:1:pos:R:3:initial_magmoms:R:1 pbc="T T T"
Si       0.89873016      -0.99889194      -1.58702610       0.00000000
Si       1.24789002       1.29702066       1.40200428       0.00000000
Si      -1.46710998       1.29702066      -1.31299572       0.00000000
Si      -1.46710998      -1.41797934       1.40200428       0.00000000
Si       2.40984486      -2.45098254       0.11950344       0.00000000
Si       2.60489046       2.70193542      -0.04494954       0.00000000
Si      -0.06057708       2.68982652      -2.67295008       0.00000000
Si       2.60539002      -0.06047934       2.75950428       0.00000000
Si      -0.10960998       2.65452066       2.75950428       0.00000000
Si      -2.82460998       2.65452066       0.04450428       0.00000000
