10
Lattice="16.28999089631971 0.0 0.0 0.0 16.28999089631971 0.0 0.0 0.0 34.71893929493243" Properties=species:S:1:pos:R:3:initial_magmoms:R:1 pbc="T T T"
Si       1.86494436       0.97798644       1.08621352       0.00000000
Si      -0.89650223      -1.86174826       1.16553246       0.00000000
Si       1.04265774      -1.72280922      -1.30555267       0.00000000
Si      -1.97442293       1.54766403      -0.29120357       0.00000000
Si       2.65843026      -0.04553055      -1.87983896       0.00000000
Si       0.42145488       2.26735623       2.49313336       0.00000000
Si      -2.32110378      -0.47587977       2.49367845       0.00000000
Si      -1.03231522       3.47495022       0.99517694       0.00000000
Si      -0.83218768      -2.94611980      -2.28348158       0.00000000
Si       2.65492791      -2.97793580      -0.11685429       0.00000000
