10
Lattice="16.28999089631971 0.0 0.0 0.0 16.28999089631971 0.0 0.0 0.0 34.71893929493243" Properties=species:S:1:pos:R:3:initial_magmoms:R:1 pbc="T T T"
Si       1.11205314      -0.26208981      -2.06400738       0.00000000
Si       0.00851967       2.37418835      -0.05318944       0.00000000
Si      -2.26568488      -0.77028894      -0.33420470       0.00000000
Si       0.94534128      -1.09926549       1.94044260       0.00000000
Si      -1.53169983      -2.64844449      -1.56731795       0.00000000
Si      -0.52147548      -1.38284181      -3.29153088       0.00000000
Si       1.80643068       2.78764973       1.43708714       0.00000000
Si       0.12240306       0.34463124       3.64396303       0.00000000
Si      -3.32857154       0.59797332      -2.03526008       0.00000000
Si       0.03075552      -3.34477683       2.11778704       0.00000000
