10
Lattice="16.28999089631971 0.0 0.0 0.0 16.28999089631971 0.0 0.0 0.0 34.71893929493243" Properties=species:S:1:pos:R:3:initial_magmoms:R:1 pbc="T T T"
Si       1.50583131      -1.19508962       1.30149225       0.00000000
Si      -1.19583261       1.54478722       1.28517086       0.00000000
Si      -1.67347170      -0.97750100      -1.33171545       0.00000000
Si       1.84477734       0.83973973      -1.28284296       0.00000000
Si       0.35435637       0.61650157      -3.07209807       0.00000000
Si      -0.11047878      -1.67669779      -2.94106872       0.00000000
Si       0.15864831      -2.52470632       2.65553858       0.00000000
Si      -2.63256174      -2.55497314       0.06495570       0.00000000
Si      -2.56212378       0.18941035       2.65324713       0.00000000
Si       2.66822055      -2.64160336      -0.16415124       0.00000000
