10
Lattice="16.28999089631971 0.0 0.0 0.0 16.28999089631971 0.0 0.0 0.0 34.71893929493243" Properties=species:S:1:pos:R:3:initial_magmoms:R:1 pbc="T T T"
Si       1.35604476       1.35632495      -1.35792791       0.00000000
Si       1.35744570      -1.35747280       1.35709466       0.00000000
Si      -1.35733167      -1.35815511      -1.35705994       0.00000000
Si      -1.35778779       1.35753041       1.35737241       0.00000000
Si       0.00226431      -2.71228893      -2.71030079       0.00000000
Si       2.71391400       0.00028345       2.71314775       0.00000000
Si      -0.00024435      -2.71298940       2.71439763       0.00000000
Si       0.00048870       2.71404758       2.71418932       0.00000000
Si      -2.71495656      -0.00019711       2.71425875       0.00000000
Si       2.71459818      -2.71471614       0.00017359       0.00000000
