10
Lattice="16.28999089631971 0.0 0.0 0.0 16.28999089631971 0.0 0.0 0.0 34.71893929493243" Properties=species:S:1:pos:R:3:initial_magmoms:R:1 pbc="T T T"
Si      -1.35827649      -1.35651717      -1.35681691       0.00000000
Si       1.35674523       1.35887922      -1.35678219       0.00000000
Si       1.35946566      -1.35923760       1.35553230       0.00000000
Si      -1.35755973       1.36076886       1.36501058       0.00000000
Si       2.71342530      -2.71376413      -0.00104157       0.00000000
Si      -0.00048870      -2.71404758      -2.71418932       0.00000000
Si       2.71469592       0.00073305      -2.71415460       0.00000000
Si      -2.71544526      -2.71424469       0.00006944       0.00000000
Si      -2.71580364       0.00120546      -2.71481426       0.00000000
Si      -0.00084708       2.71640637      -2.71471010       0.00000000
