10
Lattice="16.28999089631971 0.0 0.0 0.0 16.28999089631971 0.0 0.0 0.0 34.71893929493243" Properties=species:S:1:pos:R:3:initial_magmoms:R:1 pbc="T T T"
Si       0.36300636      -1.81096256      -1.42090810       0.00000000
Si       1.88012664       1.31121468       0.57852201       0.00000000
Si      -1.58474007       1.73156184      -0.46328978       0.00000000
Si      -1.03650012      -1.19775972       1.81302402       0.00000000
Si       1.32887304       1.48566429       2.81268700       0.00000000
Si      -2.98998063       0.27807030      -1.70893659       0.00000000
Si      -1.74954600      -1.60518076      -2.53913633       0.00000000
Si       0.76141089      -0.78429834       3.30330061       0.00000000
Si      -2.48189553       2.02976658       1.76618815       0.00000000
Si      -3.25047565      -0.23767110       1.95301086       0.00000000
