10
Lattice="16.28999089631971 0.0 0.0 0.0 16.28999089631971 0.0 0.0 0.0 34.71893929493243" Properties=species:S:1:pos:R:3:initial_magmoms:R:1 pbc="T T T"
Si       0.34174791      -2.07620190      -1.11909620       0.00000000
Si      -2.17378647      -0.16388229       1.00132949       0.00000000
Si      -0.19266183       1.52273870      -1.91315350       0.00000000
Si       1.77526791       0.37611818       1.80538585       0.00000000
Si       1.45285623       3.10358546      -1.28279609       0.00000000
Si      -0.39074823      -1.68229341      -3.35614286       0.00000000
Si      -2.53679283       1.64708027       2.42223759       0.00000000
Si      -2.46975948      -2.18695761       2.22444368       0.00000000
Si       2.62371627      -2.82889764      -1.14451047       0.00000000
Si       0.19054413       0.42699837      -4.01753902       0.00000000
