10
Lattice="16.28999089631971 0.0 0.0 0.0 16.28999089631971 0.0 0.0 0.0 34.71893929493243" Properties=species:S:1:pos:R:3:initial_magmoms:R:1 pbc="T T T"
Si      -0.30960774      -0.46242423       2.25273964       0.00000000
Si       1.51635465       1.85500420       0.00010416       0.00000000
Si       1.25136522      -1.61703729      -1.25370160       0.00000000
Si      -2.37386514      -0.01848426      -0.54078250       0.00000000
Si       0.82968228       2.34815137      -2.25923208       0.00000000
Si      -1.55004237       1.42082683       3.08293938       0.00000000
Si       0.31130190      -3.73118607      -0.82065203       0.00000000
Si      -2.49172980      -1.60936470      -2.49254348       0.00000000
Si       1.80294462      -0.66820603       3.37096786       0.00000000
Si      -1.77135668      -2.29940910       2.61190726       0.00000000
