10
Lattice="16.28999089631971 0.0 0.0 0.0 16.28999089631971 0.0 0.0 0.0 34.71893929493243" Properties=species:S:1:pos:R:3:initial_magmoms:R:1 pbc="T T T"
Si       1.22820084       0.63372987      -1.88096903       0.00000000
Si       1.49042097       0.22323816       1.78925512       0.00000000
Si      -0.46483515      -2.29319936       0.13102935       0.00000000
Si      -2.02432572       1.33840269      -0.02260204       0.00000000
Si      -2.02782807      -1.59400256       1.74038263       0.00000000
Si      -0.35435637      -0.61650157       3.07209807       0.00000000
Si       3.38698422       0.88832628      -0.71892548       0.00000000
Si       0.03181437       2.54619216      -2.51896461       0.00000000
Si      -2.24109675       1.74355128      -2.28030649       0.00000000
Si      -3.64009824      -0.33887598       0.55168425       0.00000000
