10
Lattice="16.28999089631971 0.0 0.0 0.0 16.28999089631971 0.0 0.0 0.0 34.71893929493243" Properties=species:S:1:pos:R:3:initial_magmoms:R:1 pbc="T T T"
Si      -0.95776403       1.53163467      -1.49256803       0.00000000
Si       1.40524056       1.45349154       1.24564680       0.00000000
Si      -1.45774160      -0.89445132       1.66244790       0.00000000
Si       1.24043463      -1.88325106      -0.83019974       0.00000000
Si       2.98998063      -0.27807030       1.70893659       0.00000000
Si      -2.24214650      -2.10800745      -1.74709272       0.00000000
Si      -0.26049502      -0.51574140       3.66194745       0.00000000
Si       1.55004237      -1.42082683      -3.08293938       0.00000000
Si      -0.22131431      -3.72023594      -0.47103211       0.00000000
Si      -2.57648246       2.75819022      -0.28851455       0.00000000
