10
Lattice="16.28999089631971 0.0 0.0 0.0 16.28999089631971 0.0 0.0 0.0 34.71893929493243" Properties=species:S:1:pos:R:3:initial_magmoms:R:1 pbc="T T T"
Si      -1.35891180       1.35435060      -1.36518417       0.00000000
Si       1.35755973      -1.36076886      -1.36501058       0.00000000
Si       1.35184194       1.36751292       1.38309916       0.00000000
Si      -1.35754344      -1.37842722       1.37646784       0.00000000
Si       2.71332756       2.71150308      -0.00388852       0.00000000
Si      -2.71684620       2.71306692      -0.00090269       0.00000000
Si       2.65675239      -0.11119554       2.77015628       0.00000000
Si      -2.71482624      -2.71808424      -0.00645773       0.00000000
Si      -0.00057015       2.71251306      -2.72148030       0.00000000
Si       2.71430496      -0.00188964      -2.72179277       0.00000000
