10
Lattice="16.28999089631971 0.0 0.0 0.0 16.28999089631971 0.0 0.0 0.0 34.71893929493243" Properties=species:S:1:pos:R:3:initial_magmoms:R:1 pbc="T T T"
Si       1.19724658       0.37870992       1.99949955       0.00000000
Si       0.07413090      -2.35759373      -0.12255792       0.00000000
Si       1.45774160       0.89445132      -1.66244790       0.00000000
Si      -2.23747290       0.73401111       0.59636755       0.00000000
Si      -2.21093649      -2.85717545      -0.05082856       0.00000000
Si      -0.78440490      -1.21355613      -3.40954062       0.00000000
Si      -0.49463838       0.12417867       3.67715435       0.00000000
Si       2.86298216       2.34794286      -0.41680110       0.00000000
Si       1.23642729      -2.82578462      -2.13348001       0.00000000
Si       1.96582670       2.64614760       1.81267683       0.00000000
