10
Lattice="16.28999089631971 0.0 0.0 0.0 16.28999089631971 0.0 0.0 0.0 34.71893929493243" Properties=species:S:1:pos:R:3:initial_magmoms:R:1 pbc="T T T"
Si       1.84880097       0.17317899      -1.54617411       0.00000000
Si       0.97974576       1.22262966       1.89037929       0.00000000
Si      -1.19311218       1.96558398      -1.06649697       0.00000000
Si      -0.65503719      -2.37431637      -1.01000923       0.00000000
Si      -1.44852309      -1.35079938       1.95604326       0.00000000
Si       2.12954283       3.01343823       0.71013433       0.00000000
Si      -0.87180822      -1.96916778      -3.26771367       0.00000000
Si       1.40110290      -1.16652690      -3.50637180       0.00000000
Si       0.33058926       3.91240188      -0.82047843       0.00000000
Si       2.91129993       2.40150438      -1.39056373       0.00000000
