10
Lattice="16.28999089631971 0.0 0.0 0.0 16.28999089631971 0.0 0.0 0.0 34.71893929493243" Properties=species:S:1:pos:R:3:initial_magmoms:R:1 pbc="T T T"
Si      -1.41486795      -1.52866989       1.31463337       0.00000000
Si      -1.42063461       1.27793421      -1.57131063       0.00000000
Si       1.28552535      -1.42887735      -1.58415665       0.00000000
Si       1.59247782       1.16944281       1.54120930       0.00000000
Si       2.76754068       2.69679321       0.05055080       0.00000000
Si       2.59043580      -2.90758581      -0.19709953       0.00000000
Si      -2.85786873       2.67085953      -0.10321946       0.00000000
Si       0.02251278      -2.60864802       2.96857513       0.00000000
Si       0.52188273       3.35930751       2.03876669       0.00000000
Si      -0.06559983       2.63088387      -2.96930422       0.00000000
