10
Lattice="16.28999089631971 0.0 0.0 0.0 16.28999089631971 0.0 0.0 0.0 34.71893929493243" Properties=species:S:1:pos:R:3:initial_magmoms:R:1 pbc="T T T"
Si      -1.43518158       1.33382520      -1.22419048       0.00000000
Si      -1.36202319      -1.35213516       1.35965692       0.00000000
Si       1.35602847       1.36409202       1.36639239       0.00000000
Si       1.23896853      -1.30961826      -1.52687037       0.00000000
Si      -0.42231825      -2.41282593      -2.85454561       0.00000000
Si       2.70039330      -2.68539021      -0.01823093       0.00000000
Si       2.70321147       2.69370872       0.01234606       0.00000000
Si      -0.00514764      -2.71088406       2.71866112       0.00000000
Si       2.71016730       0.00488700       2.71939022       0.00000000
Si       2.32575588       0.24391017      -3.04983975       0.00000000
