10
Lattice="16.28999089631971 0.0 0.0 0.0 16.28999089631971 0.0 0.0 0.0 34.71893929493243" Properties=species:S:1:pos:R:3:initial_magmoms:R:1 pbc="T T T"
Si      -1.38039831      -1.36585134      -1.31046710       0.00000000
Si       0.46483515       2.29319936      -0.13102935       0.00000000
Si      -1.56299292       0.69919679       1.60935328       0.00000000
Si       1.23885450      -1.96819038       1.18037516       0.00000000
Si       0.62066529      -2.86210413      -1.10402817       0.00000000
Si       2.43023994      -0.30494880      -2.16937942       0.00000000
Si       0.11047878       1.67669779       2.94106872       0.00000000
Si       1.95525612       2.51643752       1.65822577       0.00000000
Si      -3.17526309       1.95432337       0.42065490       0.00000000
Si      -2.81207754      -2.74010832       0.17057424       0.00000000
