10
Lattice="16.28999089631971 0.0 0.0 0.0 16.28999089631971 0.0 0.0 0.0 34.71893929493243" Properties=species:S:1:pos:R:3:initial_magmoms:R:1 pbc="T T T"
Si       1.38039831       1.36585134       1.31046710       0.00000000
Si      -1.43167923      -1.37425698       1.48104134       0.00000000
Si       2.00106360      -1.49625279       0.20643893       0.00000000
Si      -1.32672276       1.12989069      -1.87628197       0.00000000
Si      -3.41415594       0.36637839      -0.97535971       0.00000000
Si      -0.18259461       2.06504813       2.91982037       0.00000000
Si      -0.50378454      -0.31400604      -3.57980239       0.00000000
Si       2.61925281      -0.60233904       2.49084225       0.00000000
Si      -3.27951909      -1.91031201      -0.00059022       0.00000000
Si       3.45877425      -1.08067860      -1.61009171       0.00000000
