10
Lattice="16.28999089631971 0.0 0.0 0.0 16.28999089631971 0.0 0.0 0.0 34.71893929493243" Properties=species:S:1:pos:R:3:initial_magmoms:R:1 pbc="T T T"
Si       1.35966114      -1.35176375      -1.35737241       0.00000000
Si      -1.35604476      -1.35632495       1.35792791       0.00000000
Si      -1.35325917       1.35931905      -1.35778904       0.00000000
Si       1.35913986       1.35845568       1.35796263       0.00000000
Si       2.70632286       0.00159642      -2.72069218       0.00000000
Si      -2.71337643      -2.71448006       0.00086797       0.00000000
Si       2.71459818      -2.71351394      -0.00003472       0.00000000
Si       0.00140094      -2.71379775       2.71502257       0.00000000
Si      -2.71383255       0.00120546       2.71530032       0.00000000
Si      -2.70826137       0.00087966      -2.72274059       0.00000000
