10
Lattice="16.28999089631971 0.0 0.0 0.0 16.28999089631971 0.0 0.0 0.0 34.71893929493243" Properties=species:S:1:pos:R:3:initial_magmoms:R:1 pbc="T T T"
Si      -1.35366642       1.35325682      -1.35962914       0.00000000
Si      -1.36516716      -1.36254097       1.34719975       0.00000000
Si       1.36278882      -1.36156357      -1.35761544       0.00000000
Si       1.36000323       1.38216343       1.35452545       0.00000000
Si       0.06931395      -2.62398970       2.69054570       0.00000000
Si      -2.70762606       2.70778336      -0.00305527       0.00000000
Si       2.65057848       0.07962024       2.76904527       0.00000000
Si      -2.71013472      -0.00449942      -2.71568223       0.00000000
Si       0.00444717       2.71104136      -2.71564751       0.00000000
Si       2.71744893       2.71188844      -0.00072910       0.00000000
