10
Lattice="16.28999089631971 0.0 0.0 0.0 16.28999089631971 0.0 0.0 0.0 34.71893929493243" Properties=species:S:1:pos:R:3:initial_magmoms:R:1 pbc="T T T"
Si      -1.69826508      -0.29611636      -1.56006169       0.00000000
Si       2.28752325       0.25519588      -0.49384247       0.00000000
Si      -0.54832140       1.98390534       1.17811843       0.00000000
Si      -0.07398918      -2.38612240       0.39857365       0.00000000
Si       0.97085142       1.55889924       2.87563247       0.00000000
Si      -1.25447661      -2.76364315      -1.66046892       0.00000000
Si       2.90919852       1.09631211       1.57592825       0.00000000
Si       2.21291505      -3.02687326      -0.02878202       0.00000000
Si      -3.77572878       0.23801482      -0.55796839       0.00000000
Si      -1.34255664      -3.01788118       2.31506017       0.00000000
