10
Lattice="16.28999089631971 0.0 0.0 0.0 16.28999089631971 0.0 0.0 0.0 34.71893929493243" Properties=species:S:1:pos:R:3:initial_magmoms:R:1 pbc="T T T"
Si      -0.12533526       2.12379246       1.07309358       0.00000000
Si      -0.03678282      -1.47083129       1.90739015       0.00000000
Si       2.28369510      -0.18881902      -0.79884852       0.00000000
Si      -1.77526791      -0.37611818      -1.80538585       0.00000000
Si       0.52747020       3.30144543      -0.85984973       0.00000000
Si       2.31186051      -2.45469842      -1.30720351       0.00000000
Si      -2.43193410       2.58217677       1.19537375       0.00000000
Si       2.27273193      -1.31303006       2.77984287       0.00000000
Si       3.76992954      -0.44695687       1.04156876       0.00000000
Si      -0.52518960      -3.76780274       1.22106578       0.00000000
