10
Lattice="16.28999089631971 0.0 0.0 0.0 16.28999089631971 0.0 0.0 0.0 34.71893929493243" Properties=species:S:1:pos:R:3:initial_magmoms:R:1 pbc="T T T"
Si       0.60527124       2.20789610      -0.60643605       0.00000000
Si       0.11119554      -1.24713864      -2.05598730       0.00000000
Si      -2.28364623      -0.22041673       0.76197699       0.00000000
Si       1.69165134      -0.19543765       1.72237282       0.00000000
Si      -2.25885285      -1.95945147       2.30856772       0.00000000
Si      -1.27798308       3.24667682      -1.72167844       0.00000000
Si      -2.19831921      -1.40493987      -2.92844001       0.00000000
Si       1.48844988       1.97951030       3.06762831       0.00000000
Si       0.89331102       3.60940625       1.34074203       0.00000000
Si       3.00420180       2.15555633      -1.40733299       0.00000000
