10
Lattice="16.28999089631971 0.0 0.0 0.0 16.28999089631971 0.0 0.0 0.0 34.71893929493243" Properties=species:S:1:pos:R:3:initial_magmoms:R:1 pbc="T T T"
Si       0.02479338      -1.73903473       1.54659073       0.00000000
Si      -0.71241057       1.49284329       1.70397177       0.00000000
Si      -1.44252837      -0.80939960      -1.73872545       0.00000000
Si       2.28364623       0.22041673      -0.76197699       0.00000000
Si       1.68860511      -0.96921820       3.00437037       0.00000000
Si       1.44637281       1.74743970       2.86601532       0.00000000
Si      -1.81954413      -3.11037580      -1.02931297       0.00000000
Si       2.39484177      -1.02672190      -2.81796428       0.00000000
Si       0.08532702      -1.18452313      -3.69041700       0.00000000
Si      -3.42854001       0.77297190      -1.67765480       0.00000000
