10
Lattice="16.28999089631971 0.0 0.0 0.0 16.28999089631971 0.0 0.0 0.0 34.71893929493243" Properties=species:S:1:pos:R:3:initial_magmoms:R:1 pbc="T T T"
Si      -1.65359790      -1.05006969       1.29143107       0.00000000
Si      -1.36042677      -0.10516824      -1.91704654       0.00000000
Si       1.14662052       1.72142946       1.27889753       0.00000000
Si       1.80434556      -1.69691301      -0.02757137       0.00000000
Si      -0.63405567      -2.32068969      -2.39144639       0.00000000
Si      -0.15664464      -2.28001356       2.68679644       0.00000000
Si       0.56769021       2.84970744      -2.10720228       0.00000000
Si       2.57328243       0.44457039       2.68895596       0.00000000
Si      -0.43541541       1.23745356      -3.58751452       0.00000000
Si       1.69166763      -1.86820236      -2.95181039       0.00000000
