10
Lattice="16.28999089631971 0.0 0.0 0.0 16.28999089631971 0.0 0.0 0.0 34.71893929493243" Properties=species:S:1:pos:R:3:initial_magmoms:R:1 pbc="T T T"
Si       1.36790388       1.43237970      -1.21589265       0.00000000
Si      -1.00310562      -1.61225388      -1.48031224       0.00000000
Si       1.32001128       0.69491511       1.98582028       0.00000000
Si      -3.04671870       0.05550003       0.03152481       0.00000000
Si      -0.31732920       3.04966719      -0.63532223       0.00000000
Si      -0.31030821       2.68073127       1.97623785       0.00000000
Si      -2.44954359       1.96028973      -1.36771866       0.00000000
Si      -1.98343782       0.14437827      -2.83841375       0.00000000
Si      -1.92811698      -2.95487568       0.19015574       0.00000000
Si      -0.56769021      -2.84970744       2.10720228       0.00000000
