10
Lattice="16.28999089631971 0.0 0.0 0.0 16.28999089631971 0.0 0.0 0.0 34.71893929493243" Properties=species:S:1:pos:R:3:initial_magmoms:R:1 pbc="T T T"
Si       1.35619137       1.35588186      -1.35726825       0.00000000
Si       1.35746199      -1.35738054       1.35705994       0.00000000
Si      -1.35798327       1.35762489       1.35792791       0.00000000
Si      -1.35900954      -1.36018242      -1.35664331       0.00000000
Si       0.00071676      -2.71386513       2.71377269       0.00000000
Si       0.00081450      -2.71171485      -2.71648077       0.00000000
Si       2.71448415      -2.71428867       0.00010416       0.00000000
Si       2.71443528       2.71453302       0.00045135       0.00000000
Si      -2.71467963       2.71503801      -0.00024303       0.00000000
Si      -0.00040725       2.71580364       2.71439763       0.00000000
