10
Lattice="16.28999089631971 0.0 0.0 0.0 16.28999089631971 0.0 0.0 0.0 34.71893929493243" Properties=species:S:1:pos:R:3:initial_magmoms:R:1 pbc="T T T"
Si       1.35757602       1.35817875       1.35646972       0.00000000
Si      -1.35669636       1.35741312      -1.35817095       0.00000000
Si      -1.35725022      -1.35791811       1.35730297       0.00000000
Si       1.35798327      -1.35762489      -1.35792791       0.00000000
Si      -0.00043983       2.71529865       2.71311303       0.00000000
Si       2.71417464      -0.00174303      -2.71519616       0.00000000
Si       2.71443528       2.71538010      -0.00031247       0.00000000
Si      -2.71497285       2.71536381      -0.00062494       0.00000000
Si      -2.71489140      -2.71547784      -0.00003472       0.00000000
Si       2.71248048      -0.00141723       2.71793896       0.00000000
