10
Lattice="16.28999089631971 0.0 0.0 0.0 16.28999089631971 0.0 0.0 0.0 34.71893929493243" Properties=species:S:1:pos:R:3:initial_magmoms:R:1 pbc="T T T"
Si       1.22005584       1.70737119      -1.08982811       0.00000000
Si       0.05600502       0.29468610       2.34714048       0.00000000
Si       0.80731611      -2.06602812      -0.84835776       0.00000000
Si      -2.31923988       0.41878332      -0.51689586       0.00000000
Si       0.19938960       1.52081811      -3.19136668       0.00000000
Si      -2.20812579       1.13213871       2.61006716       0.00000000
Si      -2.28413493       1.53126000      -2.56208556       0.00000000
Si      -0.24892749      -2.40385014      -2.91632309       0.00000000
Si      -1.06624566      -0.32747787      -3.66691226       0.00000000
Si       1.95949152       1.36593279       3.22219712       0.00000000
