10
Lattice="16.28999089631971 0.0 0.0 0.0 16.28999089631971 0.0 0.0 0.0 34.71893929493243" Properties=species:S:1:pos:R:3:initial_magmoms:R:1 pbc="T T T"
Si      -1.35832536       1.35754344       1.36442036       0.00000000
Si       1.35883035      -1.35995436       1.36514946       0.00000000
Si       1.36099692       1.36014984      -1.38409906       0.00000000
Si      -1.35534429      -1.36298430      -1.39046305       0.00000000
Si      -2.71583622      -2.71427238       0.00558975       0.00000000
Si       2.71606428      -2.71531494       0.00701323       0.00000000
Si      -2.71326240       2.71929363       0.00708267       0.00000000
Si       2.71678104       2.71807839       0.00781177       0.00000000
Si      -2.71437012       0.00001629       2.72255658       0.00000000
Si       0.00027693       2.71563327       2.72234827       0.00000000
