10
Lattice="16.28999089631971 0.0 0.0 0.0 16.28999089631971 0.0 0.0 0.0 34.71893929493243" Properties=species:S:1:pos:R:3:initial_magmoms:R:1 pbc="T T T"
Si      -1.35685926      -1.35720135       1.35678219       0.00000000
Si      -1.35708732       1.35708732      -1.35726825       0.00000000
Si       1.35798327      -1.35847197      -1.35716410       0.00000000
Si       1.35868374       1.35726651       1.35771960       0.00000000
Si      -2.71487511      -0.00008145       2.71342550       0.00000000
Si      -2.71423980       2.71433066      -0.00034719       0.00000000
Si      -2.71443528      -2.71538010       0.00031247       0.00000000
Si      -0.00104256       2.71461447      -2.71540448       0.00000000
Si      -2.71528236       0.00030951      -2.71474482       0.00000000
Si       2.71552671       2.71510779      -0.00041663       0.00000000
