10
Lattice="16.28999089631971 0.0 0.0 0.0 16.28999089631971 0.0 0.0 0.0 34.71893929493243" Properties=species:S:1:pos:R:3:initial_magmoms:R:1 pbc="T T T"
Si       1.33835416       1.33362646      -1.37245085       0.00000000
Si      -1.35910728       1.35356542       1.35626140       0.00000000
Si       1.35607395      -1.36172488       1.35813623       0.00000000
Si      -1.35578412      -1.35792855      -1.39191083       0.00000000
Si       2.70991059      -2.71454346       0.00215258       0.00000000
Si      -0.00114030       2.71193965       2.71436291       0.00000000
Si       2.71581571       2.71068532      -0.00569391       0.00000000
Si      -2.71673217       2.70996856      -0.00118044       0.00000000
Si       2.71401078      -0.00303157       2.71443235       0.00000000
Si      -2.71650411      -0.00244513       2.71453650       0.00000000
