10
Lattice="16.28999089631971 0.0 0.0 0.0 16.28999089631971 0.0 0.0 0.0 34.71893929493243" Properties=species:S:1:pos:R:3:initial_magmoms:R:1 pbc="T T T"
Si      -1.08188147      -0.93144591      -1.84069503       0.00000000
Si       0.95776403      -1.53163467       1.49256803       0.00000000
Si       1.40723771       1.43500239      -1.22019780       0.00000000
Si      -1.61871842       1.22655555       1.20405349       0.00000000
Si      -2.62042310       2.29465827      -0.73500036       0.00000000
Si       2.36300459      -0.07814313       2.73821483       0.00000000
Si       0.13394127      -2.97094576      -2.13115384       0.00000000
Si      -2.92998197      -2.17148958      -1.10437536       0.00000000
Si       1.42080728       0.74401317      -3.47682596       0.00000000
Si       3.63756677       1.05598296      -0.64594623       0.00000000
