10
Lattice="16.28999089631971 0.0 0.0 0.0 16.28999089631971 0.0 0.0 0.0 34.71893929493243" Properties=species:S:1:pos:R:3:initial_magmoms:R:1 pbc="T T T"
Si      -1.35702216       1.35690813       1.35695578       0.00000000
Si       1.35728280      -1.35751086       1.35771960       0.00000000
Si       1.35796698       1.35734796      -1.35719881       0.00000000
Si      -1.35796698      -1.35923760      -1.35817095       0.00000000
Si      -2.71376739       0.00042354       2.71366853       0.00000000
Si       0.00193851       2.71394658       2.71460594       0.00000000
Si      -2.71448415       2.71428867      -0.00010416       0.00000000
Si       2.71474479       2.71463076      -0.00010416       0.00000000
Si       2.71479366       0.00040725       2.71491841       0.00000000
Si      -2.71366965       0.00257382      -2.71658492       0.00000000
