10
Lattice="16.28999089631971 0.0 0.0 0.0 16.28999089631971 0.0 0.0 0.0 34.71893929493243" Properties=species:S:1:pos:R:3:initial_magmoms:R:1 pbc="T T T"
Si      -1.22272740       1.39722588       1.48397856       0.00000000
Si       0.83927709       2.04520950      -0.94177397       0.00000000
Si       1.48817295      -1.32154254       1.44825623       0.00000000
Si      -1.90032624      -0.91694781      -1.32782106       0.00000000
Si       0.25542720      -0.01874979      -3.35940093       0.00000000
Si      -2.46433491       2.74657545      -0.01473473       0.00000000
Si      -2.64140721      -2.74014090       0.07245847       0.00000000
Si      -2.57707800       0.04698036       2.84319108       0.00000000
Si       0.13709664      -2.66691735       2.84301748       0.00000000
Si      -3.53064573       1.06886835      -1.33740349       0.00000000
