10
Lattice="16.28999089631971 0.0 0.0 0.0 16.28999089631971 0.0 0.0 0.0 34.71893929493243" Properties=species:S:1:pos:R:3:initial_magmoms:R:1 pbc="T T T"
Si       0.08154774      -1.85417667       1.64547033       0.00000000
Si      -0.34544574       2.15726841       1.35581006       0.00000000
Si       1.73594385      -0.24920442      -2.07827687       0.00000000
Si       2.77874724       0.14274927       0.14456974       0.00000000
Si      -2.61241101      -1.96664283      -0.35423754       0.00000000
Si      -0.08604378      -1.25809299      -3.60677902       0.00000000
Si       0.94833864       3.72317724      -0.10398328       0.00000000
Si      -1.29546225      -2.81869128      -2.30377650       0.00000000
Si      -2.13644979      -2.30193990       2.40557249       0.00000000
Si       1.31960403      -3.79513017       0.26327386       0.00000000
