10
Lattice="16.28999089631971 0.0 0.0 0.0 16.28999089631971 0.0 0.0 0.0 34.71893929493243" Properties=species:S:1:pos:R:3:initial_magmoms:R:1 pbc="T T T"
Si       1.12298373       0.43919469       2.05425135       0.00000000
Si      -2.21799753      -0.44776323       0.76010216       0.00000000
Si      -0.08154774       1.85417667      -1.64547033       0.00000000
Si       1.23805629      -1.94095350      -1.38219646       0.00000000
Si      -2.69395875      -0.11246616      -1.99970786       0.00000000
Si       1.76419071      -1.79028729       2.47990578       0.00000000
Si      -2.06260722       0.74824857       2.80987477       0.00000000
Si       2.69719950       1.99692594      -1.50090058       0.00000000
Si      -0.15429888       1.70155566       3.66587069       0.00000000
Si      -0.42699348       4.01144508      -0.28966027       0.00000000
