10
Lattice="16.28999089631971 0.0 0.0 0.0 16.28999089631971 0.0 0.0 0.0 34.71893929493243" Properties=species:S:1:pos:R:3:initial_magmoms:R:1 pbc="T T T"
Si      -1.33677369      -1.36060596       1.37136415       0.00000000
Si       1.35769005      -1.35514881      -1.35994161       0.00000000
Si      -1.35734796       1.36019871      -1.35879589       0.00000000
Si       1.35058761       1.36459701       1.39042486       0.00000000
Si      -2.65082283       0.09777258       2.68936526       0.00000000
Si       2.71344159      -2.71300176      -0.00413156       0.00000000
Si       0.00008145      -2.71285515      -2.71714043       0.00000000
Si      -2.71798650      -2.71386513       0.00173595       0.00000000
Si       2.71621089       2.71571079       0.00399268       0.00000000
Si       2.71523072       0.00197109      -2.71714043       0.00000000
