10
Lattice="16.28999089631971 0.0 0.0 0.0 16.28999089631971 0.0 0.0 0.0 34.71893929493243" Properties=species:S:1:pos:R:3:initial_magmoms:R:1 pbc="T T T"
Si      -2.20814208       0.67577436       0.36430603       0.00000000
Si      -0.05620050      -2.00182923      -1.23252303       0.00000000
Si       0.07855038       1.66997165      -1.67966850       0.00000000
Si       2.38513293       1.43194054      -2.17989926       0.00000000
Si       1.20115944      -2.31888150       2.58392378       0.00000000
Si       2.11248720      -2.80991097      -1.39639652       0.00000000
Si      -2.60791497       1.05317035       2.61902465       0.00000000
Si      -0.12465108       3.84491960      -0.33441301       0.00000000
Si       3.12636051      -0.82257984      -2.35981290       0.00000000
Si      -3.87195381      -0.09404217      -1.09347360       0.00000000
