10
Lattice="16.28999089631971 0.0 0.0 0.0 16.28999089631971 0.0 0.0 0.0 34.71893929493243" Properties=species:S:1:pos:R:3:initial_magmoms:R:1 pbc="T T T"
Si      -1.35758416      -1.35601218       1.35758072       0.00000000
Si      -1.35740335       1.35711990      -1.35785847       0.00000000
Si       1.35747828       1.35892809       1.35681691       0.00000000
Si       1.35760860      -1.35822762      -1.35820566       0.00000000
Si       0.00053757       2.71376739       2.71377269       0.00000000
Si      -2.71415202       2.71394658      -0.00076382       0.00000000
Si      -2.71594115      -0.00102627       2.71224505       0.00000000
Si       2.71397916      -0.00055386      -2.71561279       0.00000000
Si       2.71516833       2.71489140      -0.00045135       0.00000000
Si      -2.71517399      -2.71511946      -0.00020831       0.00000000
