10
Lattice="16.28999089631971 0.0 0.0 0.0 16.28999089631971 0.0 0.0 0.0 34.71893929493243" Properties=species:S:1:pos:R:3:initial_magmoms:R:1 pbc="T T T"
Si      -0.24516450      -0.66394782      -2.26277341       0.00000000
Si       1.97034066      -1.24564743       0.56518993       0.00000000
Si       0.91458576       2.24551134      -0.17734444       0.00000000
Si      -1.83337434      -0.70336962       1.44312824       0.00000000
Si      -1.20964653      -2.87005365      -2.11070438       0.00000000
Si       3.38685390      -1.12378194      -1.40538873       0.00000000
Si       1.94160510      -0.62877771      -3.27080366       0.00000000
Si      -1.86114879       0.64920537       3.40186773       0.00000000
Si      -0.03075552       3.34477683      -2.11778704       0.00000000
Si      -1.81206702      -3.14369307       1.65456670       0.00000000
