10
Lattice="16.28999089631971 0.0 0.0 0.0 16.28999089631971 0.0 0.0 0.0 34.71893929493243" Properties=species:S:1:pos:R:3:initial_magmoms:R:1 pbc="T T T"
Si      -1.70212581      -0.92927934      -1.19976639       0.00000000
Si      -1.27614231       1.39970196       1.27176587       0.00000000
Si       1.43518158      -1.33382520       1.22419048       0.00000000
Si       0.95909004       1.57747214      -1.39667115       0.00000000
Si      -0.28999458      -1.86183297      -2.83545018       0.00000000
Si       2.63256174       2.55497314      -0.06495570       0.00000000
Si      -2.64538523       0.03135825       2.58846502       0.00000000
Si      -3.29878202       0.85392180      -1.45282517       0.00000000
Si       0.07315839      -2.68596036       2.58384740       0.00000000
Si      -2.59234010       2.69365968      -0.11428440       0.00000000
