10
Lattice="16.28999089631971 0.0 0.0 0.0 16.28999089631971 0.0 0.0 0.0 34.71893929493243" Properties=species:S:1:pos:R:3:initial_magmoms:R:1 pbc="T T T"
Si       1.35694071      -1.35692931      -1.35848342       0.00000000
Si      -1.35784155       1.35850455      -1.35747657       0.00000000
Si       1.35728280       1.33965702       1.38292556       0.00000000
Si      -1.35279653      -1.35188266       1.38705712       0.00000000
Si       2.71410948       0.00079821      -2.71536976       0.00000000
Si      -2.71416554      -2.71575707       0.00520784       0.00000000
Si      -0.00050499      -2.71431589      -2.71568223       0.00000000
Si       2.71432125      -2.71716290       0.00208314       0.00000000
Si      -0.00099369       2.71596654      -2.71571695       0.00000000
Si      -2.71551359       0.00125433      -2.71623773       0.00000000
