10
Lattice="16.28999089631971 0.0 0.0 0.0 16.28999089631971 0.0 0.0 0.0 34.71893929493243" Properties=species:S:1:pos:R:3:initial_magmoms:R:1 pbc="T T T"
Si      -1.35727973      -1.35653346      -1.35688634       0.00000000
Si       1.35740986      -1.35671265       1.35765016       0.00000000
Si       1.35736099       1.35864741      -1.35664331       0.00000000
Si      -1.35629955       1.35720624       1.36424676       0.00000000
Si       2.71435057      -2.71155195       0.00069438       0.00000000
Si      -0.00053105      -2.71336014      -2.71398100       0.00000000
Si       2.71439944       0.00180819      -2.71373797       0.00000000
Si      -2.71482039      -2.71365336       0.00031247       0.00000000
Si      -2.71509732       0.00120546      -2.71342550       0.00000000
Si      -0.00046752       2.71654551      -2.71384213       0.00000000
