10
Lattice="16.28999089631971 0.0 0.0 0.0 16.28999089631971 0.0 0.0 0.0 34.71893929493243" Properties=species:S:1:pos:R:3:initial_magmoms:R:1 pbc="T T T"
Si       0.97633626       1.82407275       1.08993227       0.00000000
Si       1.82401573      -1.47965328       0.64327287       0.00000000
Si      -1.04280339      -0.39195369      -2.22284661       0.00000000
Si      -2.77874724      -0.14274927      -0.14456974       0.00000000
Si       0.64479730      -2.24951868      -2.23156107       0.00000000
Si       1.64699231       2.39388066      -2.25089953       0.00000000
Si      -2.69719950      -1.99692594       1.50090058       0.00000000
Si       0.20982823       1.62492750       3.32940926       0.00000000
Si       0.51814906       3.74736789      -0.16258888       0.00000000
Si       0.88260034      -3.72172743       0.53613016       0.00000000
