10
Lattice="16.28999089631971 0.0 0.0 0.0 16.28999089631971 0.0 0.0 0.0 34.71893929493243" Properties=species:S:1:pos:R:3:initial_magmoms:R:1 pbc="T T T"
Si      -0.97633626      -1.82407275      -1.08993227       0.00000000
Si      -0.45818720       1.92329514      -1.25252115       0.00000000
Si      -0.76650803      -0.19914525       2.23947699       0.00000000
Si       2.34484450      -0.19852623       0.41937030       0.00000000
Si       0.84767947      -3.30372603      -0.44665940       0.00000000
Si       0.67065604       0.56980791      -3.34083180       0.00000000
Si      -2.80674486       1.75635522      -1.33848530       0.00000000
Si      -2.82668382       0.81682947       2.02786494       0.00000000
Si      -0.34032254       3.51417558       0.69923983       0.00000000
Si       3.28490782       1.91562255      -0.01367927       0.00000000
