10
Lattice="10.86 0.0 0.0 0.0 10.86 0.0 0.0 0.0 10.86" Properties=species:S:1:pos:R:3:initial_magmoms:R:1 pbc="T T T"
Si      -1.23173034       1.25345034      -1.26710136       0.00000000
Si      -1.23173034      -1.46154966       1.44789864       0.00000000
Si       1.48326966       1.25345034       1.44789864       0.00000000
Si       1.64419314      -1.41605712      -1.36247388       0.00000000
Si      -2.58923034       2.61095034       0.09039864       0.00000000
Si      -2.58923034      -0.10404966      -2.62460136       0.00000000
Si       0.12576966       2.61095034      -2.62460136       0.00000000
Si      -0.06426948      -2.63002050      -2.73485208       0.00000000
Si      -2.58923034      -0.10404966       2.80539864       0.00000000
Si      -2.58923034      -2.81904966       0.09039864       0.00000000
