10
Lattice="10.86 0.0 0.0 0.0 10.86 0.0 0.0 0.0 10.86" Properties=species:S:1:pos:R:3:initial_magmoms:R:1 pbc="T T T"
Si      -1.49986374      -1.07795274       1.15954392       0.00000000
Si       1.21513626      -1.07795274      -1.55545608       0.00000000
Si       1.21513626       1.63704726       1.15954392       0.00000000
Si      -0.14236374      -2.43545274       2.51704392       0.00000000
Si       2.57263626      -2.43545274      -0.19795608       0.00000000
Si       2.57263626       0.27954726       2.51704392       0.00000000
Si       0.00020634      -2.23431468      -3.05142108       0.00000000
Si      -2.85736374       0.27954726       2.51704392       0.00000000
Si      -2.89971774      -2.46798930      -0.41565564       0.00000000
Si       2.57263626       0.27954726      -2.91295608       0.00000000
