10
Lattice="10.86 0.0 0.0 0.0 10.86 0.0 0.0 0.0 10.86" Properties=species:S:1:pos:R:3:initial_magmoms:R:1 pbc="T T T"
Si      -1.27679934      -1.46360220       1.25049642       0.00000000
Si      -1.27679934       1.25139780      -1.46450358       0.00000000
Si       1.43820066      -1.46360220      -1.46450358       0.00000000
Si      -2.66943144       0.01134870       2.38210842       0.00000000
Si       2.93827074       0.09503586       2.46953142       0.00000000
Si       0.08070066      -2.82110220       2.60799642       0.00000000
Si       0.08070066       2.60889780      -2.82200358       0.00000000
Si      -2.63429934      -2.82110220      -0.10700358       0.00000000
Si      -2.63429934      -0.10610220      -2.82200358       0.00000000
Si       3.04839114       2.44800690      -0.01247814       0.00000000
