10
Lattice="10.86 0.0 0.0 0.0 10.86 0.0 0.0 0.0 10.86" Properties=species:S:1:pos:R:3:initial_magmoms:R:1 pbc="T T T"
Si      -1.35198312      -1.35038670       1.34319738       0.00000000
Si       1.36301688       1.36461330       1.34319738       0.00000000
Si      -1.35198312       1.36461330      -1.37180262       0.00000000
Si       1.50153618      -1.00559256      -1.61154798       0.00000000
Si       2.57045340      -2.42153022      -0.19139664       0.00000000
Si       2.56461072       2.64304164       0.00916584       0.00000000
Si       1.40718450       1.09693602      -3.24169914       0.00000000
Si      -0.03593574       2.74181334      -2.52288660       0.00000000
Si      -0.23561856      -2.62696884      -2.63325678       0.00000000
Si       0.00551688      -2.70788670       2.70069738       0.00000000
