10
Lattice="10.86 0.0 0.0 0.0 10.86 0.0 0.0 0.0 10.86" Properties=species:S:1:pos:R:3:initial_magmoms:R:1 pbc="T T T"
Si      -1.19791230       1.46828286      -1.23823548       0.00000000
Si       1.51708770      -1.24671714      -1.23823548       0.00000000
Si       1.51708770       1.46828286       1.47676452       0.00000000
Si       0.14308050      -2.77891110      -2.46878208       0.00000000
Si       0.16777614      -2.54759310       2.75655036       0.00000000
Si      -2.71554300      -0.19556688      -2.63058522       0.00000000
Si      -2.55541230       2.82578286       0.11926452       0.00000000
Si       0.15958770       2.82578286      -2.59573548       0.00000000
Si       2.87458770       0.11078286      -2.59573548       0.00000000
Si       2.87458770      -2.60421714       0.11926452       0.00000000
