10
Lattice="10.86 0.0 0.0 0.0 10.86 0.0 0.0 0.0 10.86" Properties=species:S:1:pos:R:3:initial_magmoms:R:1 pbc="T T T"
Si      -1.07604138      -1.55757378      -1.29750936       0.00000000
Si      -1.13484828       1.16878578       1.83455808       0.00000000
Si       1.69180338       1.49430342      -1.22513832       0.00000000
Si       0.25752318       2.42543982      -2.41657806       0.00000000
Si      -2.45747682      -0.28956018      -2.41657806       0.00000000
Si      -2.45747682       2.42543982       0.29842194       0.00000000
Si       2.97252318      -0.28956018      -2.41657806       0.00000000
Si       2.97252318       2.42543982       0.29842194       0.00000000
Si       2.37074886      -2.98331802       0.64168482       0.00000000
Si       0.25752318      -3.00456018      -2.41657806       0.00000000
