10
Lattice="10.86 0.0 0.0 0.0 10.86 0.0 0.0 0.0 10.86" Properties=species:S:1:pos:R:3:initial_magmoms:R:1 pbc="T T T"
Si      -0.86188218      -1.42249710      -1.66970328       0.00000000
Si       1.81259916      -1.37032566       0.95388810       0.00000000
Si      -2.11322568      -2.73624216      -0.34326288       0.00000000
Si      -2.59299876      -1.64115234       1.70302176       0.00000000
Si       2.43665820       1.70953776      -2.08720512       0.00000000
Si       0.60177432      -2.73624216       2.37173712       0.00000000
Si      -2.11322568      -0.02124216      -3.05826288       0.00000000
Si      -2.37074886       2.98331802      -0.64168482       0.00000000
Si       3.31677432      -0.02124216       2.37173712       0.00000000
Si      -0.77279760      -1.38587718       3.76884354       0.00000000
