10
Lattice="10.86 0.0 0.0 0.0 10.86 0.0 0.0 0.0 10.86" Properties=species:S:1:pos:R:3:initial_magmoms:R:1 pbc="T T T"
Si       1.38686544       1.23861558       1.22677818       0.00000000
Si      -1.32813456      -1.47638442       1.22677818       0.00000000
Si      -1.32813456       1.23861558      -1.48822182       0.00000000
Si       0.02936544       2.59611558       2.58427818       0.00000000
Si      -2.68563456      -0.11888442       2.58427818       0.00000000
Si      -2.68563456       2.59611558      -0.13072182       0.00000000
Si       2.74436544      -0.11888442       2.58427818       0.00000000
Si       2.74436544       2.59611558      -0.13072182       0.00000000
Si      -2.72050602      -0.01803846      -2.66708568       0.00000000
Si       0.02936544      -2.83388442       2.58427818       0.00000000
