10
Lattice="10.86 0.0 0.0 0.0 10.86 0.0 0.0 0.0 10.86" Properties=species:S:1:pos:R:3:initial_magmoms:R:1 pbc="T T T"
Si      -1.25134350      -1.31374506       1.32644040       0.00000000
Si      -1.25134350       1.40125494      -1.38855960       0.00000000
Si       0.86188218       1.42249710       1.66970328       0.00000000
Si       1.46365650      -1.31374506      -1.38855960       0.00000000
Si      -2.60884350      -2.67124506      -0.03105960       0.00000000
Si       2.67448134       0.05217144       2.62359138       0.00000000
Si      -2.60884350       0.04375494      -2.74605960       0.00000000
Si       0.10615650      -2.67124506       2.68394040       0.00000000
Si      -1.73111658      -0.21865524       3.37272504       0.00000000
Si       0.10615650      -2.67124506      -2.74605960       0.00000000
