10
Lattice="16.28999089631971 0.0 0.0 0.0 16.28999089631971 0.0 0.0 0.0 34.31052061344573" Properties=species:S:1:pos:R:3:initial_magmoms:R:1 pbc="T T T"
Si      -1.34408627      -1.35230783       1.36353516       0.00000000
Si       1.35738054      -1.35432291      -1.35433994       0.00000000
Si      -1.35864301       1.35767376      -1.35289889       0.00000000
Si       1.34710155       1.35524655       1.38748392       0.00000000
Si       2.46881466      -0.32982363       2.69063253       0.00000000
Si      -2.60988590       0.09413991       2.65652785       0.00000000
Si      -0.00016290      -2.71275698      -2.71193938       0.00000000
Si       2.71466334       0.00215028      -2.71221386       0.00000000
Si      -2.71591567       0.00319284      -2.71221386       0.00000000
Si      -2.71268210      -2.71573055       0.00545538       0.00000000
