10
Lattice="16.28999089631971 0.0 0.0 0.0 16.28999089631971 0.0 0.0 0.0 34.31052061344573" Properties=species:S:1:pos:R:3:initial_magmoms:R:1 pbc="T T T"
Si      -0.31767129      -0.40923738      -2.27952364       0.00000000
Si       2.14366626       0.79006500      -0.59473890       0.00000000
Si      -1.71105273       1.64866203       0.23506151       0.00000000
Si      -1.09465542      -2.22249031      -0.59439579       0.00000000
Si       0.88542666      -0.90893313       2.84297133       0.00000000
Si      -1.44280530      -0.45048366       2.85240673       0.00000000
Si      -2.34955557      -2.29380956       1.60477257       0.00000000
Si       3.26751336       1.55978379       1.34092452       0.00000000
Si       3.60463491      -1.25993376      -0.63556844       0.00000000
Si      -2.74020606       1.60565643       2.30786415       0.00000000
