10
Lattice="16.28999089631971 0.0 0.0 0.0 16.28999089631971 0.0 0.0 0.0 34.31052061344573" Properties=species:S:1:pos:R:3:initial_magmoms:R:1 pbc="T T T"
Si      -1.25801154       1.86411357      -0.59230285       0.00000000
Si       0.49332636      -0.28103345      -2.26171647       0.00000000
Si      -1.43402499      -1.75809483       0.58255866       0.00000000
Si       2.04441129       0.58782465       1.03844280       0.00000000
Si      -1.08597285       1.37091753      -2.93416874       0.00000000
Si       2.90273139      -1.44620339       1.69456325       0.00000000
Si       2.59561602      -1.21866142      -2.27310757       0.00000000
Si      -2.36613879      -1.03901204       2.60729223       0.00000000
Si       0.07648155       3.78232623      -0.66987898       0.00000000
Si      -3.27547917      -1.86902390      -0.96899826       0.00000000
