10
Lattice="16.28999089631971 0.0 0.0 0.0 16.28999089631971 0.0 0.0 0.0 34.31052061344573" Properties=species:S:1:pos:R:3:initial_magmoms:R:1 pbc="T T T"
Si      -1.73436372      -0.93007755       1.28091538       0.00000000
Si       0.28018800      -1.22393286      -2.00301500       0.00000000
Si       0.29976858       2.35335114      -0.19790319       0.00000000
Si       1.67992254       0.21045051       2.00174551       0.00000000
Si       3.24949662      -0.54209862       0.28415989       0.00000000
Si       1.39922955       2.55599874       1.88584451       0.00000000
Si       1.13850810      -3.25796090      -1.34689455       0.00000000
Si      -3.58759557       0.49028013       1.40827611       0.00000000
Si       1.81726353      -0.21093921      -3.49216105       0.00000000
Si      -1.76422329      -1.81175751      -3.04145780       0.00000000
