10
Lattice="16.28999089631971 0.0 0.0 0.0 16.28999089631971 0.0 0.0 0.0 34.31052061344573" Properties=species:S:1:pos:R:3:initial_magmoms:R:1 pbc="T T T"
Si       1.35550719       1.35571896      -1.35598684       0.00000000
Si      -1.35762489       1.35685926       1.35667305       0.00000000
Si       1.35832536      -1.35860229       1.35674167       0.00000000
Si      -1.35819504      -1.35816246      -1.35787392       0.00000000
Si      -2.71426586       2.71267596      -0.00010293       0.00000000
Si       2.71322982      -0.00164529       2.71468422       0.00000000
Si      -0.00022806       2.71195920       2.71626250       0.00000000
Si       0.00084708       2.71375110      -2.71502732       0.00000000
Si       2.71497285       2.71419093      -0.00024017       0.00000000
Si       0.00104256      -2.71507548       2.71461560       0.00000000
