10
Lattice="16.28999089631971 0.0 0.0 0.0 16.28999089631971 0.0 0.0 0.0 34.31052061344573" Properties=species:S:1:pos:R:3:initial_magmoms:R:1 pbc="T T T"
Si      -1.34890974       1.35826020       1.35681030       0.00000000
Si       1.35749457      -1.35171162       1.36020704       0.00000000
Si      -1.35490446      -1.35695700      -1.35794254       0.00000000
Si       1.35957969       1.35817875      -1.35729064       0.00000000
Si      -2.71218726      -2.71343019      -0.00006862       0.00000000
Si      -2.71345788       2.71360449       0.00157828       0.00000000
Si      -2.71322982       0.00164529      -2.71468422       0.00000000
Si       0.00262269      -2.71449392      -2.71489008       0.00000000
Si       0.00174303       2.71583622      -2.71492439       0.00000000
Si       2.71624347      -2.71504290       0.00106363       0.00000000
