10
Lattice="16.28999089631971 0.0 0.0 0.0 16.28999089631971 0.0 0.0 0.0 34.31052061344573" Properties=species:S:1:pos:R:3:initial_magmoms:R:1 pbc="T T T"
Si       1.27277028       1.64067993       1.02276288       0.00000000
Si       0.02155167      -1.90788480       1.31052538       0.00000000
Si      -2.22886296       0.56855358      -0.43395971       0.00000000
Si       1.62632844      -0.73226808      -1.64340623       0.00000000
Si      -0.85845042       2.22220035      -2.06123999       0.00000000
Si       0.54317376       1.20021462       3.21088324       0.00000000
Si       1.31864292      -1.02815964       3.09710950       0.00000000
Si       0.71280153       3.44331504      -0.47746547       0.00000000
Si      -2.59680519       2.19721149       1.21747519       0.00000000
Si      -2.21604273      -2.35333485       1.73587314       0.00000000
