10
Lattice="16.28999089631971 0.0 0.0 0.0 16.28999089631971 0.0 0.0 0.0 34.31052061344573" Properties=species:S:1:pos:R:3:initial_magmoms:R:1 pbc="T T T"
Si       1.35654975       1.35700587      -1.35632995       0.00000000
Si       1.35757602      -1.35744570       1.35763375       0.00000000
Si      -1.35798327       1.35738054       1.35753082       0.00000000
Si      -1.35804843      -1.35948195      -1.35646719       0.00000000
Si       2.71101438       0.00175932      -2.71550767       0.00000000
Si      -2.71018848       0.00029322      -2.71887010       0.00000000
Si       2.71437012       2.71482624       0.00017155       0.00000000
Si       2.71430496      -2.71531494       0.00027448       0.00000000
Si      -2.71493212       2.71495656       0.00044604       0.00000000
Si       0.00418653       2.71445157      -2.71557629       0.00000000
