10
Lattice="16.28999089631971 0.0 0.0 0.0 16.28999089631971 0.0 0.0 0.0 34.31052061344573" Properties=species:S:1:pos:R:3:initial_magmoms:R:1 pbc="T T T"
Si       1.35565380       1.35702216       1.35657012       0.00000000
Si      -1.35729909       1.35617508      -1.35701616       0.00000000
Si       1.35681039      -1.35814617      -1.35725633       0.00000000
Si      -1.35874890      -1.35689184       1.35763375       0.00000000
Si       0.00346977       2.71233387       2.71197369       0.00000000
Si       2.71406061       2.71436652       0.00061759       0.00000000
Si      -2.71472850       2.71400306       0.00010293       0.00000000
Si      -0.00112401       2.71425907      -2.71451267       0.00000000
Si      -2.71624347       0.00017919       2.71320887       0.00000000
Si       2.71463076      -0.00114030      -2.71485577       0.00000000
