10
Lattice="16.28999089631971 0.0 0.0 0.0 16.28999089631971 0.0 0.0 0.0 34.31052061344573" Properties=species:S:1:pos:R:3:initial_magmoms:R:1 pbc="T T T"
Si       1.45404540      -1.23400171      -1.43366591       0.00000000
Si      -1.24957332       1.49037210      -1.43064658       0.00000000
Si       1.60601481       1.21031442       1.38803289       0.00000000
Si      -1.65468933      -1.05624360       1.52441728       0.00000000
Si      -3.11565798       0.99375516       1.56524683       0.00000000
Si       0.37090701       1.31830083       3.42072651       0.00000000
Si       0.10257813      -2.58944161      -2.80245058       0.00000000
Si      -2.77006563      -2.64654575       0.10296593       0.00000000
Si      -2.61874782       0.13167207      -2.80423473       0.00000000
Si      -2.62612719       2.82628242      -0.01320956       0.00000000
