10
Lattice="16.28999089631971 0.0 0.0 0.0 16.28999089631971 0.0 0.0 0.0 34.31052061344573" Properties=species:S:1:pos:R:3:initial_magmoms:R:1 pbc="T T T"
Si       1.35742941       1.35812988      -1.35502615       0.00000000
Si      -1.35773892       1.35687555       1.35770237       0.00000000
Si      -1.35638685      -1.35780408      -1.35831996       0.00000000
Si       1.35772263      -1.35767376       1.35790823       0.00000000
Si       0.00410508       2.70945054      -2.71742906       0.00000000
Si       2.71404432       0.00140094       2.71341473       0.00000000
Si      -0.00017919       2.71313208       2.71492439       0.00000000
Si       2.71463076       2.71485882       0.00054897       0.00000000
Si       2.71466334      -2.71528073       0.00017155       0.00000000
Si      -2.71557558       2.71453302       0.00006862       0.00000000
