10
Lattice="16.28999089631971 0.0 0.0 0.0 16.28999089631971 0.0 0.0 0.0 34.31052061344573" Properties=species:S:1:pos:R:3:initial_magmoms:R:1 pbc="T T T"
Si      -1.35332433       1.35132066      -1.36240291       0.00000000
Si       1.35720135       1.35672894       1.35557512       0.00000000
Si      -1.35742941      -1.35812988       1.35502615       0.00000000
Si       1.35303111      -1.35576783      -1.36535362       0.00000000
Si       0.00022806       2.71432125       2.71231679       0.00000000
Si       2.71484253      -0.00115659       2.71255697       0.00000000
Si      -2.71516833      -0.00125433       2.71272852       0.00000000
Si       0.00029322      -2.71580364       2.71293438       0.00000000
Si       2.71536381       2.71409319      -0.00480348       0.00000000
Si      -2.71547784       2.71425609      -0.00473485       0.00000000
