10
Lattice="16.28999089631971 0.0 0.0 0.0 16.28999089631971 0.0 0.0 0.0 34.31052061344573" Properties=species:S:1:pos:R:3:initial_magmoms:R:1 pbc="T T T"
Si       1.23657781       1.19510933       1.57579187       0.00000000
Si       0.90827567      -1.97980908      -0.86966925       0.00000000
Si      -1.32432163      -1.38475167       1.58501797       0.00000000
Si       1.23178855       1.37749543      -2.22781766       0.00000000
Si       2.03751801      -0.87375066      -2.60132220       0.00000000
Si      -2.58044353       2.29213658      -0.00027448       0.00000000
Si       2.12491386       3.07438238       0.12468450       0.00000000
Si      -2.60816911      -2.79808836       0.11720480       0.00000000
Si      -0.15038278       2.50167485       2.94582544       0.00000000
Si      -1.08220336      -3.31089756      -1.72815327       0.00000000
