10
Lattice="16.28999089631971 0.0 0.0 0.0 16.28999089631971 0.0 0.0 0.0 34.31052061344573" Properties=species:S:1:pos:R:3:initial_magmoms:R:1 pbc="T T T"
Si      -0.12219129       2.34522243       0.24017378       0.00000000
Si      -1.12384710      -0.76971879      -1.93566341       0.00000000
Si      -0.88480764      -0.71397441       2.08817376       0.00000000
Si       2.36271789      -0.44517312      -0.08018373       0.00000000
Si       0.33712155      -2.81971755      -1.97649296       0.00000000
Si       0.14581179       2.86058916      -2.14598702       0.00000000
Si       1.01991690      -1.36743147       3.28331279       0.00000000
Si      -0.63431631       1.06280847      -3.51411980       0.00000000
Si       2.06120628       2.98409994       0.86610096       0.00000000
Si      -2.38208670      -2.46871692       1.50204681       0.00000000
