10
Lattice="16.28999089631971 0.0 0.0 0.0 16.28999089631971 0.0 0.0 0.0 34.31052061344573" Properties=species:S:1:pos:R:3:initial_magmoms:R:1 pbc="T T T"
Si       1.35804843       1.35638685      -1.35488891       0.00000000
Si      -1.35747828       1.35633798       1.35670736       0.00000000
Si       1.35767376      -1.35799956       1.35687892       0.00000000
Si      -1.35803214      -1.35806472      -1.36017273       0.00000000
Si       2.70475902       0.00825903      -2.70819953       0.00000000
Si       2.71467963      -0.00076563       2.71307162       0.00000000
Si       2.71396287       2.71432125       0.00020586       0.00000000
Si       0.00144981       2.71142163      -2.71691440       0.00000000
Si       0.00083079       2.71324611       2.71602233       0.00000000
Si      -2.71549413       2.71422351      -0.00044604       0.00000000
