10
Lattice="16.28999089631971 0.0 0.0 0.0 16.28999089631971 0.0 0.0 0.0 34.31052061344573" Properties=species:S:1:pos:R:3:initial_magmoms:R:1 pbc="T T T"
Si       1.35663120       1.35848826      -1.35886893       0.00000000
Si      -1.35830907      -1.35690813      -1.35931497       0.00000000
Si       1.35936792      -1.36098063       1.35591822       0.00000000
Si      -1.36083402       1.36225125       1.35958945       0.00000000
Si      -0.00531054      -2.69446374       2.72243840       0.00000000
Si       2.71295289       2.71438641      -0.00147535       0.00000000
Si       2.71384884      -2.71401174      -0.00295071       0.00000000
Si       2.71313208       0.00107514      -2.71581647       0.00000000
Si      -0.00083079      -2.71324611      -2.71602233       0.00000000
Si      -2.71590138      -2.71425609      -0.00078914       0.00000000
