10
Lattice="16.28999089631971 0.0 0.0 0.0 16.28999089631971 0.0 0.0 0.0 34.31052061344573" Properties=species:S:1:pos:R:3:initial_magmoms:R:1 pbc="T T T"
Si      -2.26092168       0.62319024      -0.02707102       0.00000000
Si       0.27603405      -1.11088026      -2.06731295       0.00000000
Si       1.26724797       2.00829636       0.33785589       0.00000000
Si       0.09723501      -1.80051741       1.59163163       0.00000000
Si       1.06875432       0.79692309      -3.25624178       0.00000000
Si      -2.21504904      -2.04564933       2.04727560       0.00000000
Si      -2.99051820       0.18272493       2.16104935       0.00000000
Si      -1.90736352      -1.74975777      -2.69324013       0.00000000
Si       1.63422909      -2.95722144      -1.73902971       0.00000000
Si      -3.53369196      -1.01748969      -1.04983390       0.00000000
