10
Lattice="16.28999089631971 0.0 0.0 0.0 16.28999089631971 0.0 0.0 0.0 34.31052061344573" Properties=species:S:1:pos:R:3:initial_magmoms:R:1 pbc="T T T"
Si       0.71343684       0.91399932      -2.15360396       0.00000000
Si       2.14234677       0.47732958       1.20258442       0.00000000
Si      -1.23372315       1.63279557       1.52084899       0.00000000
Si      -1.89056853      -1.69129296      -2.22675403       0.00000000
Si       2.40039666       2.16601614      -1.09025171       0.00000000
Si      -0.87560379       0.18485892       3.38596993       0.00000000
Si       1.45231866      -0.08493606       3.45225789       0.00000000
Si       1.56631608      -3.36315195       0.97963453       0.00000000
Si       2.09592027       3.04434036       1.06729796       0.00000000
Si      -2.32332867      -1.73424969       2.70857694       0.00000000
