10
Lattice="16.28999089631971 0.0 0.0 0.0 16.28999089631971 0.0 0.0 0.0 34.31052061344573" Properties=species:S:1:pos:R:3:initial_magmoms:R:1 pbc="T T T"
Si      -1.85929173      -0.23027544      -1.39427741       0.00000000
Si       0.56689200       2.29850908       0.27431277       0.00000000
Si       1.92151953      -0.98170056      -1.06935659       0.00000000
Si      -0.58907898      -1.42609176       1.89123126       0.00000000
Si       1.65959262      -1.91915748       2.16063762       0.00000000
Si       2.87696061       1.98596277       0.91962540       0.00000000
Si       2.11426281      -3.00208410       0.03983454       0.00000000
Si       2.53900827       0.39413655       2.63216737       0.00000000
Si      -1.01574666      -1.50275250      -3.22474470       0.00000000
Si       0.70626924       3.05920728      -1.99927515       0.00000000
