10
Lattice="16.28999089631971 0.0 0.0 0.0 16.28999089631971 0.0 0.0 0.0 34.31052061344573" Properties=species:S:1:pos:R:3:initial_magmoms:R:1 pbc="T T T"
Si       2.11885659      -0.52082388       0.86719889       0.00000000
Si      -1.69673382      -1.41495266       0.83467250       0.00000000
Si       0.00667890      -0.53258689      -2.31894645       0.00000000
Si      -0.38638251       2.09007705       1.30019791       0.00000000
Si      -0.45608742       0.77084769       3.33048979       0.00000000
Si       1.38644190      -0.72013203       3.15591776       0.00000000
Si       2.79541517      -2.32909763      -0.53754323       0.00000000
Si       3.34556105       1.49966229       0.60887484       0.00000000
Si      -3.65254380      -0.77995217      -0.29400702       0.00000000
Si      -2.24495748      -0.69536960       3.01273988       0.00000000
