10
Lattice="16.28999089631971 0.0 0.0 0.0 16.28999089631971 0.0 0.0 0.0 34.31052061344573" Properties=species:S:1:pos:R:3:initial_magmoms:R:1 pbc="T T T"
Si      -2.34204588      -0.30204918      -0.18407605       0.00000000
Si       0.89873559       2.05690572      -0.78252048       0.00000000
Si       0.86227857      -1.77616386      -1.35681030       0.00000000
Si       1.20251151      -1.06393248       1.82916350       0.00000000
Si       0.11104893      -0.62683920      -3.27936708       0.00000000
Si       0.66661938       1.66151484      -3.15420223       0.00000000
Si       3.11658651       2.20709952       0.03352140       0.00000000
Si      -0.38814183      -3.81541841      -0.94710814       0.00000000
Si      -0.29766717      -2.24599027       3.27496302       0.00000000
Si      -3.19381740      -2.37736097       0.52505419       0.00000000
