10
Lattice="16.28999089631971 0.0 0.0 0.0 16.28999089631971 0.0 0.0 0.0 34.31052061344573" Properties=species:S:1:pos:R:3:initial_magmoms:R:1 pbc="T T T"
Si       1.35864301      -1.35767376       1.35289889       0.00000000
Si      -1.35727265      -1.35448092      -1.35931497       0.00000000
Si       1.35735611       1.35993807      -1.35938359       0.00000000
Si      -1.35892713       1.36052451       1.35849151       0.00000000
Si       0.01455674      -2.70998159       2.71643406       0.00000000
Si      -2.71441803      -2.71305226      -0.00048035       0.00000000
Si       2.71602355      -2.71199667      -0.00144104       0.00000000
Si      -0.00014661      -2.71227197      -2.71588509       0.00000000
Si      -2.71352208       0.00252495      -2.71543905       0.00000000
Si       2.71475293       2.71503801       0.00020586       0.00000000
