10
Lattice="16.28999089631971 0.0 0.0 0.0 16.28999089631971 0.0 0.0 0.0 34.31052061344573" Properties=species:S:1:pos:R:3:initial_magmoms:R:1 pbc="T T T"
Si       1.08921456      -0.35689761       2.07403782       0.00000000
Si      -2.38482342      -0.05501133       0.58547505       0.00000000
Si       0.85809204       2.08057509      -1.05271598       0.00000000
Si       0.70216416      -1.94456988      -1.39602724       0.00000000
Si       3.34210594      -0.17306496       1.42409326       0.00000000
Si      -3.46384044      -0.81722043      -1.45963898       0.00000000
Si       0.79892676      -2.65295682       2.67361450       0.00000000
Si      -0.21760182       3.92911542       0.01173420       0.00000000
Si       1.65183858      -1.13034681      -3.45270393       0.00000000
Si      -3.21634647       2.17219005       1.12226345       0.00000000
