10
Lattice="16.28999089631971 0.0 0.0 0.0 16.28999089631971 0.0 0.0 0.0 34.31052061344573" Properties=species:S:1:pos:R:3:initial_magmoms:R:1 pbc="T T T"
Si       0.37212876       1.75558959       1.46907438       0.00000000
Si      -1.32273171      -1.78588899       0.82588900       0.00000000
Si       2.19619241      -0.77147811      -0.45492345       0.00000000
Si      -1.10105739      -0.00539199      -2.13425282       0.00000000
Si      -1.62647505      -2.35851507      -1.42920553       0.00000000
Si      -1.30712589       1.69709220       3.04379092       0.00000000
Si       2.01596473       1.06060932       2.96645496       0.00000000
Si      -0.43109856      -2.28784905       2.96226907       0.00000000
Si       1.13041427       3.63905568       0.33432190       0.00000000
Si       2.97716759      -2.10634587       1.30057532       0.00000000
