10
Lattice="16.28999089631971 0.0 0.0 0.0 16.28999089631971 0.0 0.0 0.0 34.31052061344573" Properties=species:S:1:pos:R:3:initial_magmoms:R:1 pbc="T T T"
Si      -0.32702175      -0.58727079      -2.25904025       0.00000000
Si      -1.74822651       1.54930932       0.44881617       0.00000000
Si       2.27442609      -0.00503361       0.78351549       0.00000000
Si      -0.96677892      -1.74553866       1.45205635       0.00000000
Si      -2.78163153      -1.91383065      -0.29280615       0.00000000
Si       1.92163356      -1.04247855      -2.72775653       0.00000000
Si      -1.34320824      -2.66134617      -2.01866061       0.00000000
Si      -3.62247246       0.30604023      -0.42925916       0.00000000
Si      -0.91536768      -0.80241282       3.77306144       0.00000000
Si       2.33261397       1.30670235      -3.05463305       0.00000000
