10
Lattice="16.28999089631971 0.0 0.0 0.0 16.28999089631971 0.0 0.0 0.0 34.31052061344573" Properties=species:S:1:pos:R:3:initial_magmoms:R:1 pbc="T T T"
Si       0.06738448      -0.97192656       2.08812885       0.00000000
Si      -0.89145396       2.16595098      -0.10728906       0.00000000
Si      -0.72039267      -1.52489061      -1.70077346       0.00000000
Si       2.39071130       0.58845996      -0.51675104       0.00000000
Si       1.14827788      -0.34314885      -2.66785033       0.00000000
Si       1.25125186       0.96853824       3.12404811       0.00000000
Si       1.09902507       3.49703946       0.75119496       0.00000000
Si       0.62387346      -3.51805356      -1.25940267       0.00000000
Si       2.77865765       2.06449686       1.58507832       0.00000000
Si      -1.11443148       2.92978908      -2.37284831       0.00000000
