10
Lattice="16.28999089631971 0.0 0.0 0.0 16.28999089631971 0.0 0.0 0.0 34.31052061344573" Properties=species:S:1:pos:R:3:initial_magmoms:R:1 pbc="T T T"
Si       1.25644770       1.57985244      -1.18817399       0.00000000
Si      -0.30447639       0.87832422       2.15754967       0.00000000
Si      -1.68695982      -1.25201682      -1.06335225       0.00000000
Si      -0.25804989      -1.68868656       2.29283613       0.00000000
Si      -2.40039666      -2.16601614       1.09025171       0.00000000
Si       2.47573791       0.15464097      -2.55726746       0.00000000
Si      -0.25508511      -2.55168189      -2.54007788       0.00000000
Si      -0.24215085       2.87144386      -2.54186203       0.00000000
Si      -2.97188244       0.15905556      -2.52673108       0.00000000
Si      -2.52369567       1.66672896       2.53101990       0.00000000
