10
Lattice="16.28999089631971 0.0 0.0 0.0 16.28999089631971 0.0 0.0 0.0 34.31052061344573" Properties=species:S:1:pos:R:3:initial_magmoms:R:1 pbc="T T T"
Si      -0.83129077      -0.00368154      -2.15641743       0.00000000
Si      -0.93294037       1.93826565       0.97712986       0.00000000
Si       0.38497180      -1.38513870       1.89558870       0.00000000
Si       2.35124484       0.00280188      -0.58791110       0.00000000
Si       2.91862554       1.90109187       0.66610482       0.00000000
Si       1.09096736       3.01922118       1.71755131       0.00000000
Si      -1.42592464       3.18713850      -1.26451494       0.00000000
Si       0.17431440       0.14799465       3.71126816       0.00000000
Si      -1.88261479       1.12404258       3.03380655       0.00000000
Si       0.93477884      -0.34209000      -3.67760952       0.00000000
