10
Lattice="16.28999089631971 0.0 0.0 0.0 16.28999089631971 0.0 0.0 0.0 34.31052061344573" Properties=species:S:1:pos:R:3:initial_magmoms:R:1 pbc="T T T"
Si      -0.32643531       0.90963360       2.10694163       0.00000000
Si      -0.29725992      -2.29597776      -0.30714795       0.00000000
Si      -1.52452246       0.68817105      -1.63077996       0.00000000
Si       2.18605284       0.88545924      -0.43931215       0.00000000
Si       2.83897233      -0.93934656      -1.76246381       0.00000000
Si      -0.82173276       2.84319144      -2.02727255       0.00000000
Si       2.97398385       0.87703731       1.82020845       0.00000000
Si       1.52143713       2.62484028      -1.94643692       0.00000000
Si       1.50447924      -2.85755922      -1.68488768       0.00000000
Si      -2.55602236       0.41115960       2.60619429       0.00000000
