10
Lattice="16.28999089631971 0.0 0.0 0.0 16.28999089631971 0.0 0.0 0.0 34.31052061344573" Properties=species:S:1:pos:R:3:initial_magmoms:R:1 pbc="T T T"
Si       0.78097518      -1.33486776       1.75549877       0.00000000
Si      -2.19619241       0.77147811       0.45492345       0.00000000
Si       1.30618107       1.82333970      -1.01566060       0.00000000
Si      -0.21131225      -1.93000662      -1.56850633       0.00000000
Si      -1.82406365       2.52706770       1.92399783       0.00000000
Si      -0.37370889      -0.57720357       3.62607509       0.00000000
Si       3.11303529      -1.43392725       1.58627919       0.00000000
Si      -3.29724980       0.76608612      -1.67932937       0.00000000
Si      -3.51892412      -1.01441088       1.28081245       0.00000000
Si      -0.18022767       1.83208743       3.42137841       0.00000000
