10
Lattice="16.28999089631971 0.0 0.0 0.0 16.28999089631971 0.0 0.0 0.0 34.31052061344573" Properties=species:S:1:pos:R:3:initial_magmoms:R:1 pbc="T T T"
Si      -0.70061661      -1.84135644      -1.34572799       0.00000000
Si       1.86452082       0.80524728      -1.32668564       0.00000000
Si      -1.64203200       1.77596838      -0.29606565       0.00000000
Si      -0.77722848       0.09534537       2.55651263       0.00000000
Si       1.60682931      -0.05045013       2.65299387       0.00000000
Si      -2.03032207      -0.57816468      -2.89107470       0.00000000
Si       0.69221097       2.13219810      -2.90397547       0.00000000
Si       2.85324237       2.49067584       0.03921695       0.00000000
Si      -3.41271332       0.73743201      -1.51343791       0.00000000
Si      -0.61134741       3.46876002      -1.55093933       0.00000000
