10
Lattice="16.290000149 0.0 0.0 0.0 16.290000149 0.0 0.0 0.0 29.1751946751" Properties=species:S:1:pos:R:3:initial_magmoms:R:1 pbc="T T T"
Si       1.22176630      -1.53256321       1.24303834       0.00000000
Si      -1.38800575      -1.35337321      -1.29059391       0.00000000
Si      -1.05612958       1.46673532       1.47775279       0.00000000
Si       1.37554390       1.31973436      -1.35562542       0.00000000
Si       0.75715921       2.22013154       2.86497494       0.00000000
Si      -2.37058598       0.11051136       2.86249505       0.00000000
Si      -0.02072088       2.60219720      -2.71472269       0.00000000
Si      -0.02695995      -2.70083315      -2.62448381       0.00000000
Si      -2.74300797       0.00540828      -2.59376233       0.00000000
Si      -2.50580927       2.81958726       0.19786617       0.00000000
