10
Lattice="16.290000149 0.0 0.0 0.0 16.290000149 0.0 0.0 0.0 29.1751946751" Properties=species:S:1:pos:R:3:initial_magmoms:R:1 pbc="T T T"
Si       1.13106358      -0.06441066      -1.00342247       0.00000000
H        0.67416166       0.91929358       1.62097382       0.00000000
H       -0.91456948       1.77596840       0.45028995       0.00000000
Si      -2.27247131       1.19762452       0.17747271       0.00000000
Si      -2.72632700      -1.01255383       0.78014471       0.00000000
Si       0.14362893       0.66262834       3.00813762       0.00000000
Si       1.35511624      -2.20050209      -1.91141288       0.00000000
Si       3.19244907       0.62760484      -0.10001257       0.00000000
Si       0.90166780       1.45039645      -2.83772531       0.00000000
Si      -1.65532466      -0.92828566       2.88285934       0.00000000
