10
Lattice="16.290000149 0.0 0.0 0.0 16.290000149 0.0 0.0 0.0 29.1751946751" Properties=species:S:1:pos:R:3:initial_magmoms:R:1 pbc="T T T"
H       -1.03045654      -1.10959336       0.21630489       0.00000000
Si       1.48472111      -1.07588935      -1.42748393       0.00000000
Si       1.17337523      -0.16301403       2.01087112       0.00000000
Si      -1.26293113       1.64405197      -1.14606000       0.00000000
H       -1.56102184       0.43458462       2.02971829       0.00000000
Si       0.00542457      -2.20560086       2.60823323       0.00000000
Si      -2.55927305      -0.03310128      -2.32158694       0.00000000
Si      -2.00510354      -0.85134799       2.69599221       0.00000000
Si       0.06372648      -2.51954174      -2.58743131       0.00000000
Si       3.05755158      -2.14327532      -0.06984542       0.00000000
