10
Lattice="16.290000149 0.0 0.0 0.0 16.290000149 0.0 0.0 0.0 29.1751946751" Properties=species:S:1:pos:R:3:initial_magmoms:R:1 pbc="T T T"
Si      -1.33139800       1.36590674      -1.37315971       0.00000000
Si       1.37038975       1.37200246       1.33012630       0.00000000
Si       1.36996784      -1.33876108      -1.38048269       0.00000000
Si      -1.37876932      -1.32717889       1.38932277       0.00000000
Si      -2.63624330      -2.69552261      -0.06628604       0.00000000
Si       0.06010396      -2.67636557       2.67626978       0.00000000
Si      -0.02586852       2.70858719       2.67895390       0.00000000
Si      -2.70264134       2.70503597      -0.00694370       0.00000000
Si      -2.66321954       0.01130526      -2.75647239       0.00000000
Si       2.77627215       0.03407868       2.66314095       0.00000000
