10
Lattice="16.290000149 0.0 0.0 0.0 16.290000149 0.0 0.0 0.0 29.1751946751" Properties=species:S:1:pos:R:3:initial_magmoms:R:1 pbc="T T T"
Si       0.34710732      -0.88485652      -2.13439889       0.00000000
Si      -1.82200394       1.45854145       0.16892438       0.00000000
Si       1.62284239       1.68521681       0.07121665       0.00000000
Si       0.22939578      -1.51480711       1.83430284       0.00000000
H       -0.90166780      -1.45039645       2.83772531       0.00000000
Si       1.05821470       2.72236853       2.07922860       0.00000000
Si       2.29078127      -0.82279162       2.73771274       0.00000000
Si       1.40400253       0.87702103      -3.31546912       0.00000000
Si      -3.65236464       0.16669557       0.80561465       0.00000000
H       -1.81623728       0.32557194       3.28801526       0.00000000
