10
Lattice="16.290000149 0.0 0.0 0.0 16.290000149 0.0 0.0 0.0 29.1751946751" Properties=species:S:1:pos:R:3:initial_magmoms:R:1 pbc="T T T"
Si       1.34751533      -1.33522615       1.37648568       0.00000000
Si      -1.27194406       1.36102951       1.42261167       0.00000000
Si       1.34243285       1.36839259      -1.36315262       0.00000000
Si      -1.37905603      -1.36213723      -1.33321887       0.00000000
Si       2.65975629       0.13250286       2.65587632       0.00000000
Si       0.01720224      -2.69872197      -2.68204647       0.00000000
Si      -2.66305013       2.71710686       0.07212108       0.00000000
Si      -2.68326602       0.01769094      -2.70830415       0.00000000
Si      -0.06049617      -2.62903335       2.76831752       0.00000000
Si       2.72015961       0.02244762      -2.72122876       0.00000000
