10
Lattice="16.290000149 0.0 0.0 0.0 16.290000149 0.0 0.0 0.0 29.1751946751" Properties=species:S:1:pos:R:3:initial_magmoms:R:1 pbc="T T T"
Si      -1.36972837      -1.40541976      -1.31404785       0.00000000
Si      -1.34456032       1.28050804       1.46109375       0.00000000
Si       1.34112313      -1.33879366       1.41759353       0.00000000
Si       1.33941268       1.41933142      -1.35772895       0.00000000
Si       2.67027311      -0.01545921      -2.67369945       0.00000000
Si      -2.67965615      -2.69412167       0.15518286       0.00000000
Si       0.06239070      -2.77402413      -2.60175634       0.00000000
Si      -2.78083335       2.59750568       0.18004013       0.00000000
Si      -2.72425817      -0.04888629      -2.68964953       0.00000000
Si       2.68547168       2.73522134       0.04735134       0.00000000
