10
Lattice="16.290000149 0.0 0.0 0.0 16.290000149 0.0 0.0 0.0 29.1751946751" Properties=species:S:1:pos:R:3:initial_magmoms:R:1 pbc="T T T"
Si       1.41797935      -1.33152832      -1.30278914       0.00000000
Si       1.37210671       1.32618520       1.36525323       0.00000000
Si      -1.35197227      -1.37464795       1.34684369       0.00000000
Si      -1.35303112       1.31771440      -1.40711964       0.00000000
Si       0.10451664      -2.69050529      -2.64791149       0.00000000
Si       0.00327429       2.70615998       2.68729801       0.00000000
Si       2.75307519       2.64310139       0.00312175       0.00000000
Si      -2.72187983      -0.01127268       2.68335935       0.00000000
Si      -2.71534754       2.69175962      -0.05703751       0.00000000
Si       0.01436778       2.66711285      -2.75689835       0.00000000
