10
Lattice="16.290000149 0.0 0.0 0.0 16.290000149 0.0 0.0 0.0 29.1751946751" Properties=species:S:1:pos:R:3:initial_magmoms:R:1 pbc="T T T"
Si       0.63687385      -0.41259312       2.13884519       0.00000000
Si      -1.07921251      -1.75772360      -1.06594491       0.00000000
Si      -1.70321726       1.59927076      -0.01595883       0.00000000
Si       1.79217695       0.59223925      -1.43830792       0.00000000
Si      -0.31521150       3.03784068      -1.19250691       0.00000000
H        3.08630343       1.18571653      -0.55324922       0.00000000
H       -0.58925818      -3.04618116       1.34500565       0.00000000
Si      -2.00542934      -0.70799599      -2.89733023       0.00000000
Si       0.76074301       1.92798668      -3.05703525       0.00000000
Si      -1.26802990      -1.20718675       3.25774017       0.00000000
