10
Lattice="16.290000149 0.0 0.0 0.0 16.290000149 0.0 0.0 0.0 29.1751946751" Properties=species:S:1:pos:R:3:initial_magmoms:R:1 pbc="T T T"
Si      -1.37836207       1.34770429       1.32137374       0.00000000
Si      -1.36917451      -1.36210465      -1.32852166       0.00000000
Si       1.35244468       1.39033522      -1.32659610       0.00000000
Si       1.35716878      -1.32942691       1.38660948       0.00000000
Si       0.04175127       2.65895156       2.63414080       0.00000000
Si       0.01484019      -2.67745700      -2.68796904       0.00000000
Si       2.70350471      -2.67949325       0.02083109       0.00000000
Si      -2.72585459       0.00845451      -2.66565001       0.00000000
Si      -2.72792343      -0.00998577       2.67367319       0.00000000
Si       2.69428457       0.05207913      -2.70882930       0.00000000
