10
Lattice="16.290000149 0.0 0.0 0.0 16.290000149 0.0 0.0 0.0 29.1751946751" Properties=species:S:1:pos:R:3:initial_magmoms:R:1 pbc="T T T"
Si      -1.46573675      -1.38082186       1.21500098       0.00000000
Si       1.33784884      -1.33292926      -1.40843252       0.00000000
Si      -1.34813598       1.35018037      -1.38687205       0.00000000
Si       1.40844970       1.39646026       1.30290584       0.00000000
Si      -0.11494224       2.66181860       2.52511310       0.00000000
Si      -0.04670343      -2.60196914       2.59069894       0.00000000
Si       2.75748978       2.68224626      -0.07045810       0.00000000
Si      -2.80490997      -0.07807797       2.64038429       0.00000000
Si      -0.01078398       2.69964398      -2.75711425       0.00000000
Si       2.75820654      -2.70635546      -0.15725430       0.00000000
