10
Lattice="16.290000149 0.0 0.0 0.0 16.290000149 0.0 0.0 0.0 29.1751946751" Properties=species:S:1:pos:R:3:initial_magmoms:R:1 pbc="T T T"
Si       1.37135737      -1.34542369      -1.33972494       0.00000000
Si       1.37679823       1.33535647       1.34617266       0.00000000
Si      -1.35203743      -1.36404316       1.35574212       0.00000000
Si      -1.34711785       1.35985663      -1.36668282       0.00000000
Si      -0.01700676      -2.69550632      -2.66188641       0.00000000
Si      -0.00158013       2.70177797       2.65818116       0.00000000
Si      -2.72267804      -0.00737937       2.68960285       0.00000000
Si      -2.69384474       0.00250866      -2.72846421       0.00000000
Si       2.73364121       2.69013062      -0.01114492       0.00000000
Si       2.74374102       0.01040931      -2.67994586       0.00000000
