10
Lattice="16.290000149 0.0 0.0 0.0 16.290000149 0.0 0.0 0.0 29.1751946751" Properties=species:S:1:pos:R:3:initial_magmoms:R:1 pbc="T T T"
Si       1.43072628      -1.21200859       1.38459639       0.00000000
Si      -1.43520603       1.24462117       1.36811240       0.00000000
Si      -1.35829572      -1.41275026      -1.31095820       0.00000000
Si       1.36817268       1.42830721      -1.29867544       0.00000000
H       -1.18488574      -1.45169965       3.06914295       0.00000000
Si      -0.04747721      -2.41513913       2.77432761       0.00000000
Si       2.57340463      -2.64127691      -0.07769354       0.00000000
Si      -0.01421140       2.68827356       2.52805979       0.00000000
Si       2.56639993       0.02456532      -2.77339401       0.00000000
Si      -2.72690530       2.65994525       0.01131998       0.00000000
