10
Lattice="16.290000149 0.0 0.0 0.0 16.290000149 0.0 0.0 0.0 29.1751946751" Properties=species:S:1:pos:R:3:initial_magmoms:R:1 pbc="T T T"
Si       1.36682875       1.35806473       1.32998042       0.00000000
Si       1.37064061      -1.35666379      -1.33386073       0.00000000
Si      -1.34390872       1.38261376      -1.34331349       0.00000000
Si      -1.37538100      -1.33556824       1.36262747       0.00000000
Si      -0.07069860       2.69320943       2.61132580       0.00000000
Si      -0.00425169      -2.70342326      -2.67694081       0.00000000
Si      -2.69158043       0.02003670      -2.69444593       0.00000000
Si      -0.02050911      -2.70215264       2.70001839       0.00000000
Si       2.72267804       0.00737937      -2.68960285       0.00000000
Si       2.72109791       2.70915734      -0.03142168       0.00000000
