10
Lattice="16.290000149 0.0 0.0 0.0 16.290000149 0.0 0.0 0.0 29.1751946751" Properties=species:S:1:pos:R:3:initial_magmoms:R:1 pbc="T T T"
Si      -1.31106808       0.45932913      -0.60862374       0.00000000
H        0.57041065      -0.11937312      -2.33363630       0.00000000
Si       1.75671362      -0.63012979      -1.53484864       0.00000000
Si       1.06616422      -2.49489497      -0.11737181       0.00000000
Si      -2.57118104       0.70620409       1.32793816       0.00000000
Si       0.43556202      -2.16687953       2.21180068       0.00000000
Si      -2.28349964      -1.53730360      -1.48557174       0.00000000
Si      -1.34340373      -0.61882453       2.83903819       0.00000000
Si      -1.04262517       2.49178358      -1.80159745       0.00000000
Si       3.05305554       1.04702347      -0.35932170       0.00000000
