10
Lattice="16.290000149 0.0 0.0 0.0 16.290000149 0.0 0.0 0.0 29.1751946751" Properties=species:S:1:pos:R:3:initial_magmoms:R:1 pbc="T T T"
H       -1.13740854       0.96343948       0.29481534       0.00000000
H        1.50783499      -1.46792449      -0.62318216       0.00000000
Si       1.47820348       1.20313054      -1.38973122       0.00000000
Si       1.28425474       0.17622522       2.02405831       0.00000000
Si      -1.31774454      -1.70155568      -1.13479837       0.00000000
H       -2.29004822      -0.82344322       2.21463068       0.00000000
Si       2.11856339      -2.77087201      -0.16982881       0.00000000
Si       0.04747721       2.41513913      -2.77432761       0.00000000
Si      -2.60576471      -0.35587134      -2.63848791       0.00000000
Si       0.76002625       2.54324369       2.73532038       0.00000000
