10
Lattice="16.290000149 0.0 0.0 0.0 16.290000149 0.0 0.0 0.0 29.1751946751" Properties=species:S:1:pos:R:3:initial_magmoms:R:1 pbc="T T T"
H        1.28749645       0.04852791       0.80978670       0.00000000
Si      -1.33163909      -1.38531953       1.37505610       0.00000000
Si      -0.77195053       2.25561116       0.16653201       0.00000000
Si       0.60494545      -1.50912353      -1.78537604       0.00000000
Si       0.53229204       2.00837783      -1.75488796       0.00000000
Si       0.51261372      -2.59113629       2.24313484       0.00000000
Si       2.74162332       1.90726580      -0.95356206       0.00000000
H       -3.04201092       1.00870939      -1.56431559       0.00000000
Si       3.60430914      -0.16755894      -0.16306016       0.00000000
Si       2.67905342      -2.24794672      -0.96429853       0.00000000
