10
Lattice="16.290000149 0.0 0.0 0.0 16.290000149 0.0 0.0 0.0 29.1751946751" Properties=species:S:1:pos:R:3:initial_magmoms:R:1 pbc="T T T"
Si      -1.67751164       1.67975966       0.24866018       0.00000000
Si       0.36241992      -0.23113881       2.36228634       0.00000000
Si       1.63603729       1.05808438      -1.43466102       0.00000000
Si      -1.07167024      -1.69191200      -1.38255413       0.00000000
H        1.88635758      -1.63823644       0.26636953       0.00000000
H        0.54185427       2.46803276       1.36907519       0.00000000
H       -1.08020620       0.05851368       2.79860137       0.00000000
Si      -2.41421060      -0.27821691      -2.75515951       0.00000000
Si       0.34433802       2.47340846      -2.79145345       0.00000000
Si      -3.54030573       0.83743633      -1.00295567       0.00000000
