10
Lattice="16.290000149 0.0 0.0 0.0 16.290000149 0.0 0.0 0.0 29.1751946751" Properties=species:S:1:pos:R:3:initial_magmoms:R:1 pbc="T T T"
Si       1.37438731      -1.34621213       1.33753680       0.00000000
Si       1.36536265       1.34681812      -1.35072399       0.00000000
Si      -1.35296596      -1.36934393      -1.34932358       0.00000000
Si      -1.35071794       1.34971774       1.37280961       0.00000000
Si       0.01931994      -2.70074193       2.67250618       0.00000000
Si       0.00360009       2.71219706      -2.68773563       0.00000000
Si      -2.73510732      -0.01122381      -2.67413999       0.00000000
Si      -2.71979471       2.69357759       0.00773143       0.00000000
Si       2.72489348       2.69049878       0.01280791       0.00000000
Si       2.72881937      -0.01450625      -2.69733427       0.00000000
