10
Lattice="16.290000149 0.0 0.0 0.0 16.290000149 0.0 0.0 0.0 29.1751946751" Properties=species:S:1:pos:R:3:initial_magmoms:R:1 pbc="T T T"
Si      -1.35506737      -1.35452980       1.33496938       0.00000000
Si      -1.37438731       1.34621213      -1.33753680       0.00000000
Si       1.30693042       1.31401657       1.44653533       0.00000000
Si       1.35334063      -1.38458485      -1.33750762       0.00000000
Si       0.04051323      -2.80499142       2.52832237       0.00000000
Si       2.67380804       2.67274919       0.06879511       0.00000000
Si      -0.00902466       2.69303024      -2.68826079       0.00000000
Si       2.71322984      -0.02098152      -2.68073359       0.00000000
Si      -2.72735327      -0.02313180      -2.68686038       0.00000000
Si      -2.72510525       2.69592986       0.03527281       0.00000000
