10
Lattice="16.290000149 0.0 0.0 0.0 16.290000149 0.0 0.0 0.0 29.1751946751" Properties=species:S:1:pos:R:3:initial_magmoms:R:1 pbc="T T T"
Si       1.35145099      -1.34265439       1.36271499       0.00000000
Si      -1.35055504       1.33071382       1.39950491       0.00000000
Si       1.45373590       1.43765539      -1.21291787       0.00000000
Si      -1.41853321      -1.46189719      -1.22681985       0.00000000
Si      -0.99593803       0.92147644      -3.42875932       0.00000000
Si       0.04541652       2.77706873      -2.48160705       0.00000000
Si      -2.82437652      -0.09747936      -2.47950935       0.00000000
Si       2.69301395      -2.66388743      -0.04525073       0.00000000
Si      -0.08996967      -2.62440047      -2.78520996       0.00000000
Si      -0.00348606      -2.71324613       2.70769147       0.00000000
