10
Lattice="16.290000149 0.0 0.0 0.0 16.290000149 0.0 0.0 0.0 29.1751946751" Properties=species:S:1:pos:R:3:initial_magmoms:R:1 pbc="T T T"
Si       1.30212487       1.23483088      -1.50097624       0.00000000
Si       1.44967969      -1.35285193       1.27988662       0.00000000
Si      -1.50278509       1.33921720       1.24697700       0.00000000
Si      -1.43542594      -1.41043708      -1.31690994       0.00000000
Si      -2.81781002      -0.15047073       2.50982530       0.00000000
Si       2.50580927      -2.81958726      -0.19786617       0.00000000
Si      -0.11823282       2.60825708      -2.75215446       0.00000000
Si       0.13522329      -2.70907589       2.66462888       0.00000000
Si       2.48508839      -0.21739005      -2.91258886       0.00000000
Si       3.15662736       2.16658631      -0.39360255       0.00000000
