10
Lattice="16.290000149 0.0 0.0 0.0 16.290000149 0.0 0.0 0.0 29.1751946751" Properties=species:S:1:pos:R:3:initial_magmoms:R:1 pbc="T T T"
Si       1.30849426      -1.41789790      -1.30572884       0.00000000
Si       1.40252014       1.30251583       1.34451959       0.00000000
Si      -1.30629511      -1.47466855       1.27535396       0.00000000
Si      -1.27513234       1.49030695      -1.34082659       0.00000000
Si       2.56432295       0.06576273      -2.63407545       0.00000000
Si      -2.69319314      -0.11073942       2.62889043       0.00000000
Si       0.01830996       2.65836512       2.66825069       0.00000000
Si      -2.64101627       0.16386111      -2.68930409       0.00000000
Si      -2.71857296       2.66906765       0.02359748       0.00000000
Si      -0.06090831      -2.42877386      -2.94896333       0.00000000
