10
Lattice="16.290000149 0.0 0.0 0.0 16.290000149 0.0 0.0 0.0 29.1751946751" Properties=species:S:1:pos:R:3:initial_magmoms:R:1 pbc="T T T"
Si       0.89114446      -0.84180205       0.89273178       0.00000000
H       -1.90268831      -0.40425264      -1.24764803       0.00000000
Si       0.91069246       1.01240722      -2.05472144       0.00000000
Si      -0.97476103      -0.32983992      -2.44960770       0.00000000
Si      -0.73609624       2.53052446      -0.99367796       0.00000000
Si      -1.45836226       2.19240107       1.27422663       0.00000000
Si       1.93163564      -2.32042907      -0.57734793       0.00000000
Si      -0.49418973      -2.06537654       2.32984352       0.00000000
Si       2.78531310       0.45302490       1.52592103       0.00000000
Si       2.84516256      -0.48011517      -1.74321788       0.00000000
