10
Lattice="16.290000149 0.0 0.0 0.0 16.290000149 0.0 0.0 0.0 29.1751946751" Properties=species:S:1:pos:R:3:initial_magmoms:R:1 pbc="T T T"
Si       0.62964109      -0.40415490       2.14758608       0.00000000
Si       1.83210374       0.82451836      -1.16400274       0.00000000
Si      -0.87698845      -1.88915132      -1.07090470       0.00000000
Si      -1.60171426       1.77728789       0.08898434       0.00000000
H        2.67708233       1.75974356      -0.35584985       0.00000000
Si      -2.27325323      -0.60668848      -2.43000196       0.00000000
Si       0.53713017       2.11856339      -2.59031966       0.00000000
Si      -1.49537314      -0.98875414       3.14969567       0.00000000
Si      -3.45621675       0.84553246      -1.01838935       0.00000000
Si      -0.54481905       3.53916543      -1.09208589       0.00000000
