10
Lattice="16.290000149 0.0 0.0 0.0 16.290000149 0.0 0.0 0.0 29.1751946751" Properties=species:S:1:pos:R:3:initial_magmoms:R:1 pbc="T T T"
Si      -2.05527674       0.61235414      -0.89421972       0.00000000
Si       1.03534354      -1.62098371      -1.31489685       0.00000000
Si      -0.52556427      -1.25369307       1.93335263       0.00000000
Si       1.51744609       1.84870488       0.07112912       0.00000000
Si       2.32761296      -0.18218019      -2.59268285       0.00000000
Si      -3.30116853      -1.17238968      -0.05204855       0.00000000
Si       2.56471391      -2.60902108       0.19357742       0.00000000
Si       0.78315805       3.17484121      -1.71993608       0.00000000
Si      -2.17235297       0.26442417       2.99439611       0.00000000
Si       0.89376715       2.91653068       2.11706883       0.00000000
