10
Lattice="16.290000149 0.0 0.0 0.0 16.290000149 0.0 0.0 0.0 29.1751946751" Properties=species:S:1:pos:R:3:initial_magmoms:R:1 pbc="T T T"
Si      -1.57283047       1.06738597      -1.35763851       0.00000000
Si       1.38020284      -1.49121919      -1.20283493       0.00000000
Si      -0.84607003      -1.49278303       1.62394969       0.00000000
Si       0.42650478       1.80634925       1.49120255       0.00000000
H        0.35702793      -1.12332583       2.50614922       0.00000000
Si      -1.88417635       1.98026129       2.08071653       0.00000000
Si      -0.25780554       2.55707390      -2.62048681       0.00000000
Si      -3.05755158       2.14327532       0.06984542       0.00000000
Si       2.69465924      -0.13499523      -2.58757719       0.00000000
Si      -0.12789279      -2.83289619      -2.50110191       0.00000000
