10
Lattice="16.290000149 0.0 0.0 0.0 16.290000149 0.0 0.0 0.0 29.1751946751" Properties=species:S:1:pos:R:3:initial_magmoms:R:1 pbc="T T T"
Si       1.36383139       1.36111096      -1.32887177       0.00000000
Si      -1.34936587       1.36635634       1.35489604       0.00000000
Si       1.38487807      -1.33705063       1.34955698       0.00000000
Si      -1.33374376      -1.35145099      -1.39477853       0.00000000
Si       2.69840594      -0.08311158      -2.61567290       0.00000000
Si      -2.68952789      -2.69589728      -0.02042264       0.00000000
Si      -0.01945026       2.71893134      -2.66812990       0.00000000
Si       0.02406033      -2.69895980       2.69304552       0.00000000
Si      -2.71770959       0.02230101       2.69724675       0.00000000
Si       0.01642032       2.72917775       2.70710796       0.00000000
