10
Lattice="16.290000149 0.0 0.0 0.0 16.290000149 0.0 0.0 0.0 29.1751946751" Properties=species:S:1:pos:R:3:initial_magmoms:R:1 pbc="T T T"
Si      -1.36717084       1.35653347      -1.32828826       0.00000000
Si       1.34811154       1.36264222       1.34783564       0.00000000
Si      -1.37665162      -1.33001335       1.35472099       0.00000000
Si       1.37459908      -1.36472734      -1.33248949       0.00000000
Si       2.66849750      -0.07819200       2.62305423       0.00000000
Si       0.00117288       2.70058880      -2.67063897       0.00000000
Si       0.01026270      -2.72025083      -2.67991668       0.00000000
Si      -2.70666497      -0.00553860      -2.69470851       0.00000000
Si      -2.68560200       2.72109791       0.06085946       0.00000000
Si      -0.06608853      -2.75765268       2.65117912       0.00000000
