10
Lattice="16.290000149 0.0 0.0 0.0 16.290000149 0.0 0.0 0.0 29.1751946751" Properties=species:S:1:pos:R:3:initial_magmoms:R:1 pbc="T T T"
Si      -1.40331835       1.31953888       1.31463427       0.00000000
Si       1.37065690      -1.23861016       1.44443471       0.00000000
Si       1.33191928       1.39738879      -1.34208813       0.00000000
Si      -1.39093795      -1.37661904      -1.31195015       0.00000000
Si       2.56888415      -2.64235205      -0.03028385       0.00000000
Si      -0.11573556       2.73219141       2.63262369       0.00000000
Si       2.63041148       0.03816747      -2.75944826       0.00000000
Si       0.00248423      -2.66691737       2.74311015       0.00000000
Si      -2.73090450      -0.01137042      -2.68793986       0.00000000
Si      -2.72655507       2.69241122      -0.02068521       0.00000000
