10
Lattice="16.290000149 0.0 0.0 0.0 16.290000149 0.0 0.0 0.0 29.1751946751" Properties=species:S:1:pos:R:3:initial_magmoms:R:1 pbc="T T T"
H        1.22790763      -1.94926142       0.22076870       0.00000000
H       -1.98405686      -0.62332057      -1.08237055       0.00000000
Si       1.87532111       0.71850304       1.27092983       0.00000000
Si      -0.75544876      -1.87338260       1.28359186       0.00000000
Si       0.63060220      -0.32801544      -2.32917249       0.00000000
Si      -1.77896576       1.54805500       0.62723751       0.00000000
H       -2.63316449      -0.19771173      -1.12260314       0.00000000
H        2.31940280       2.00443565       0.60465591       0.00000000
H       -0.43556202       2.16687953      -2.21180068       0.00000000
H        2.84996811       0.46025766      -1.20875749       0.00000000
