10
Lattice="16.290000149 0.0 0.0 0.0 16.290000149 0.0 0.0 0.0 29.1751946751" Properties=species:S:1:pos:R:3:initial_magmoms:R:1 pbc="T T T"
Si       0.73428805      -1.32613633       1.79106520       0.00000000
Si      -1.75819601       0.97080256       1.25966821       0.00000000
Si       1.39142665       1.82483840      -0.75015261       0.00000000
Si       0.10777464      -1.73262071      -1.80366889       0.00000000
H       -2.14928633      -0.25238097      -1.31177510       0.00000000
Si       2.88109830       0.55920313      -2.03453220       0.00000000
Si       2.73285929      -2.20823495       0.82288637       0.00000000
Si      -0.78315805      -3.17484121       1.71993608       0.00000000
Si      -2.79274134       0.58937221      -2.39154906       0.00000000
Si       1.54445491      -3.35702140      -0.87274677       0.00000000
