10
Lattice="16.290000149 0.0 0.0 0.0 16.290000149 0.0 0.0 0.0 29.1751946751" Properties=species:S:1:pos:R:3:initial_magmoms:R:1 pbc="T T T"
Si       1.30008862      -1.35008263       1.41791446       0.00000000
Si      -1.37674936       1.34793235       1.35133667       0.00000000
Si      -1.42747642      -1.40450752      -1.24244317       0.00000000
Si       1.42646644       1.38942298      -1.28163713       0.00000000
Si       2.71164971      -0.06043590      -2.60939148       0.00000000
Si      -2.63985968      -0.02625948      -2.69448969       0.00000000
Si       0.05110173       2.64958481      -2.70129626       0.00000000
Si      -0.10511937      -2.72814986      -2.63758639       0.00000000
Si       2.63360432      -2.76924627       0.13543125       0.00000000
Si      -0.03002247       2.70528032       2.71311805       0.00000000
