10
Lattice="16.290000149 0.0 0.0 0.0 16.290000149 0.0 0.0 0.0 29.1751946751" Properties=species:S:1:pos:R:3:initial_magmoms:R:1 pbc="T T T"
Si       1.33965703      -1.35684298      -1.34303895       0.00000000
Si       1.30003975       1.18003132       1.55849543       0.00000000
Si      -1.31978323      -1.40076082       1.34452455       0.00000000
Si      -1.22031649       1.40967145      -1.44903243       0.00000000
Si      -0.15798042      -2.63751392      -2.63407049       0.00000000
Si       0.37548450       2.90093463      -2.39865584       0.00000000
Si      -2.70399341      -0.04491153       2.66825565       0.00000000
Si      -2.68799663       2.71024763      -0.10189699       0.00000000
Si      -2.72230337      -2.70327665       0.00000496       0.00000000
Si      -0.01438407       2.67282998       2.76540905       0.00000000
