10
Lattice="16.290000149 0.0 0.0 0.0 16.290000149 0.0 0.0 0.0 29.1751946751" Properties=species:S:1:pos:R:3:initial_magmoms:R:1 pbc="T T T"
Si       1.32615262      -1.26969148       1.45586847       0.00000000
Si      -0.86542255      -1.93433978      -1.03483248       0.00000000
Si      -1.43211907       1.36860436       1.28770848       0.00000000
Si       1.20902752       1.44300079      -1.44137132       0.00000000
Si       2.58222566      -2.65831625       0.06503443       0.00000000
Si       2.60788241       2.75856492      -0.07194311       0.00000000
Si      -0.06239070       2.77402413       2.60175634       0.00000000
Si      -0.09151722      -2.66688479       2.72111206       0.00000000
Si      -1.50229639      -1.52174665      -3.17367768       0.00000000
Si       2.76156228       0.20836539      -2.65211272       0.00000000
