10
Lattice="16.290000149 0.0 0.0 0.0 16.290000149 0.0 0.0 0.0 29.1751946751" Properties=species:S:1:pos:R:3:initial_magmoms:R:1 pbc="T T T"
Si       1.05612958      -1.46673532      -1.47775279       0.00000000
Si      -1.31445640      -1.35622396       1.38474226       0.00000000
Si      -1.44967969       1.35285193      -1.27988662       0.00000000
Si       1.81328879       0.75339622       1.38722216       0.00000000
Si       2.15562314      -1.19741275       2.76041104       0.00000000
Si       0.28144233      -2.65913075       2.60018087       0.00000000
Si       2.43167348      -0.14700096      -2.83337821       0.00000000
Si      -2.69465924       0.13499523       2.58757719       0.00000000
Si       2.27789588      -2.99929854      -0.23471444       0.00000000
Si      -0.14755482       2.58768281      -2.78086286       0.00000000
