10
Lattice="16.290000149 0.0 0.0 0.0 16.290000149 0.0 0.0 0.0 29.1751946751" Properties=species:S:1:pos:R:3:initial_magmoms:R:1 pbc="T T T"
Si       0.97950142      -1.85896595       0.89684548       0.00000000
Si      -1.48678831      -1.01296108      -1.46978796       0.00000000
Si      -1.60906105       0.78892471       1.52533753       0.00000000
Si       1.66048859       1.52441821      -0.73337687       0.00000000
H        0.90862363       2.07143642       1.76504093       0.00000000
H        0.25951599       2.49704525       1.72480833       0.00000000
H       -0.88492168       0.86317453       2.84852013       0.00000000
Si      -1.95139541       2.73973368       0.15214864       0.00000000
Si       0.17361882       3.32433291      -0.84996095       0.00000000
Si      -0.05504391      -2.24039630      -2.75437178       0.00000000
