10
Lattice="16.290000149 0.0 0.0 0.0 16.290000149 0.0 0.0 0.0 29.1751946751" Properties=species:S:1:pos:R:3:initial_magmoms:R:1 pbc="T T T"
Si       2.19774908      -0.38579607       0.81019516       0.00000000
Si       0.05683581       2.29275236       0.67505565       0.00000000
Si       0.13532103      -0.41891364      -2.35645130       0.00000000
Si      -1.49532427      -1.39104872       1.29041886       0.00000000
H       -2.18149166      -0.20282679      -1.38360443       0.00000000
H       -0.86045410       2.46037646      -1.87485636       0.00000000
Si       0.48024549       2.03093948       2.96134469       0.00000000
Si      -0.72736480       1.65591110      -3.14695320       0.00000000
Si       2.11611989       0.29996406       3.04291445       0.00000000
Si       2.43256943      -0.35719083      -2.80866682       0.00000000
