10
Lattice="16.290000149 0.0 0.0 0.0 16.290000149 0.0 0.0 0.0 29.1751946751" Properties=species:S:1:pos:R:3:initial_magmoms:R:1 pbc="T T T"
Si       1.33477003       1.32823774      -1.39722925       0.00000000
Si      -1.20228346       1.46246734       1.43393164       0.00000000
Si       1.47132910      -1.20177847       1.45648407       0.00000000
Si      -1.55520631      -1.12868524      -1.46832920       0.00000000
H        1.84630862      -2.98080939      -0.82907151       0.00000000
Si      -0.16656525       2.63894744      -2.69602139       0.00000000
Si      -2.52434729       0.08035857       2.80996219       0.00000000
Si       2.92785060       2.45192195      -0.05324473       0.00000000
Si       3.02386386      -2.43641387       0.24574266       0.00000000
Si      -2.59239062       2.89399998       0.21117006       0.00000000
