10
Lattice="16.290000149 0.0 0.0 0.0 16.290000149 0.0 0.0 0.0 29.1751946751" Properties=species:S:1:pos:R:3:initial_magmoms:R:1 pbc="T T T"
Si      -1.35957970       1.35804193       1.33879133       0.00000000
Si       1.35034327       1.37333824      -1.33575711       0.00000000
Si       1.38214135      -1.35812012       1.32481641       0.00000000
Si      -1.35615880      -1.37287886      -1.33762433       0.00000000
Si       2.68385897      -0.04582540      -2.61824032       0.00000000
Si       0.00702099      -2.71426263       2.65745178       0.00000000
Si      -2.72614782      -0.01398497      -2.65535117       0.00000000
Si       0.01531260       2.70480140       2.68187142       0.00000000
Si      -2.70272279       0.00313582       2.70579508       0.00000000
Si       2.73510732       0.01122381       2.67413999       0.00000000
