10
Lattice="16.290000149 0.0 0.0 0.0 16.290000149 0.0 0.0 0.0 29.1751946751" Properties=species:S:1:pos:R:3:initial_magmoms:R:1 pbc="T T T"
Si       1.37256283       1.38337939       1.31081232       0.00000000
Si       1.37124334      -1.33912924      -1.36621602       0.00000000
Si      -1.32330187       1.36396171      -1.39352400       0.00000000
Si      -1.36687762      -1.35873262       1.37774022       0.00000000
Si      -2.67380804      -2.67274919      -0.06879511       0.00000000
Si       2.67677282       0.00355122       2.68589760       0.00000000
Si      -2.68372865       2.71528238      -0.03982414       0.00000000
Si       2.70264134      -2.70503597       0.00694370       0.00000000
Si      -2.69099399       0.03541446       2.74261418       0.00000000
Si       0.04919580       2.75473677       2.68426379       0.00000000
