10
Lattice="16.290000149 0.0 0.0 0.0 16.290000149 0.0 0.0 0.0 29.1751946751" Properties=species:S:1:pos:R:3:initial_magmoms:R:1 pbc="T T T"
Si       0.68773123      -2.05091591      -0.76246454       0.00000000
Si      -0.62345089      -0.51134310       2.17944539       0.00000000
Si      -1.82027720       0.88850548      -1.14512639       0.00000000
Si       1.76797001       1.48237372      -0.32851269       0.00000000
H        1.37687968       0.25919019      -2.89995600       0.00000000
Si       0.15952797       1.52673139       3.06535018       0.00000000
Si      -2.85016359      -1.26061795      -1.53015144       0.00000000
Si       2.15172983       2.12371103       1.89519147       0.00000000
Si      -0.69831973       2.32837859      -2.69514613       0.00000000
Si       0.78846859       3.34133967      -1.22535818       0.00000000
