10
Lattice="16.290000149 0.0 0.0 0.0 16.290000149 0.0 0.0 0.0 29.1751946751" Properties=species:S:1:pos:R:3:initial_magmoms:R:1 pbc="T T T"
H        1.11008206      -1.67462831      -0.79071838       0.00000000
Si       1.92122633       0.79506604       1.12398546       0.00000000
Si      -0.23780142       0.52274610      -2.29913429       0.00000000
Si      -1.72848305       1.56017476       0.45707260       0.00000000
Si      -0.82251469      -1.98570215       1.10062197       0.00000000
Si       0.72119089       2.07635372       2.67291405       0.00000000
Si      -2.15107823      -0.82319887       2.65901207       0.00000000
Si       2.00293697      -2.43773336      -1.75962659       0.00000000
Si      -2.13197006      -0.77208085      -2.93232354       0.00000000
Si      -0.68712850       3.41576705       1.40422488       0.00000000
