10
Lattice="16.290000149 0.0 0.0 0.0 16.290000149 0.0 0.0 0.0 29.1751946751" Properties=species:S:1:pos:R:3:initial_magmoms:R:1 pbc="T T T"
Si      -0.47045211      -1.20743110      -0.85451228       0.00000000
Si       1.26689595       1.30000717      -0.46379807       0.00000000
Si      -0.14564580       2.56197719       0.86139908       0.00000000
Si       2.73385608      -0.11041362       0.71322755       0.00000000
Si      -1.47230341       1.18426672       2.19281055       0.00000000
Si       1.36926720      -1.51953610       2.06010718       0.00000000
Si      -2.60276426      -0.43409592      -1.22824652       0.00000000
Si       0.02708164      -2.89992954       0.70157591       0.00000000
Si      -3.22642691       0.23301216       0.95815190       0.00000000
Si       0.71156985      -1.70471756      -2.83880479       0.00000000
