10
Lattice="16.290000149 0.0 0.0 0.0 16.290000149 0.0 0.0 0.0 29.1751946751" Properties=species:S:1:pos:R:3:initial_magmoms:R:1 pbc="T T T"
Si       1.21238326      -1.37824804       1.45204652       0.00000000
Si      -1.37977930      -1.25823961      -1.41351286       0.00000000
Si      -1.40537089       1.40061421       1.28538906       0.00000000
Si       1.87880717       0.81507016      -1.18586547       0.00000000
Si       2.53474031      -2.70189038       0.05690330       0.00000000
Si       2.63985968       0.02625948       2.69448969       0.00000000
Si       2.69096141       2.67584429      -0.00680657       0.00000000
Si       3.51468156      -0.91590526      -1.10429571       0.00000000
Si      -2.74436818      -2.66736209      -0.06663323       0.00000000
Si      -0.08734698       2.73764855       2.68614559       0.00000000
