10
Lattice="16.290000149 0.0 0.0 0.0 16.290000149 0.0 0.0 0.0 29.1751946751" Properties=species:S:1:pos:R:3:initial_magmoms:R:1 pbc="T T T"
H        1.20309796       0.36945720       0.88219954       0.00000000
Si       0.84607003       1.49278303      -1.62394969       0.00000000
Si       0.52422849      -2.36701847      -0.71126207       0.00000000
Si      -0.78001408      -2.11978514       1.21015790       0.00000000
Si      -2.20605698       1.43045749       1.05412896       0.00000000
H        2.60047046      -1.66366514       1.36216066       0.00000000
Si      -0.21284514      -1.07898445       3.23284497       0.00000000
Si      -3.42137244      -0.17270658      -0.34458822       0.00000000
H       -1.89743478      -1.57980421      -2.44050503       0.00000000
Si       1.27257481       3.29913228      -0.13274714       0.00000000
