10
Lattice="16.290000149 0.0 0.0 0.0 16.290000149 0.0 0.0 0.0 29.1751946751" Properties=species:S:1:pos:R:3:initial_magmoms:R:1 pbc="T T T"
Si      -1.36404761      -1.39124746      -1.33015548       0.00000000
Si       1.29352049      -1.34866540       1.44017513       0.00000000
Si      -1.34661970       1.32442588       1.41607642       0.00000000
Si       1.38091634       1.36394542      -1.35217983       0.00000000
Si      -2.65791226      -2.67919841       0.15941326       0.00000000
Si      -2.79965155      -0.00022806      -2.57149874       0.00000000
Si       2.69894026       2.70097976       0.04857670       0.00000000
Si       2.64974446      -2.74781514       0.15524121       0.00000000
Si       0.04191906      -2.70403088      -2.70420211       0.00000000
Si      -2.67807928       2.73473265       0.10882348       0.00000000
