10
Lattice="16.290000149 0.0 0.0 0.0 16.290000149 0.0 0.0 0.0 29.1751946751" Properties=species:S:1:pos:R:3:initial_magmoms:R:1 pbc="T T T"
Si      -1.33778368      -1.44717103       1.25651728       0.00000000
Si       1.34405533      -1.36523233      -1.35116162       0.00000000
Si      -1.38686545       1.34322454      -1.34696039       0.00000000
Si       1.25747398       1.36834372       1.45560881       0.00000000
Si      -2.69969285      -0.07718202       2.51886961       0.00000000
Si       2.63624330       2.69552261       0.06628604       0.00000000
Si      -0.02697624       2.70682787      -2.69018635       0.00000000
Si       2.69115025      -0.00891063      -2.70751642       0.00000000
Si       2.68708439      -2.72349254       0.01738842       0.00000000
Si      -0.02709027      -2.71578737      -2.70421962       0.00000000
