10
Lattice="16.290000149 0.0 0.0 0.0 16.290000149 0.0 0.0 0.0 29.1751946751" Properties=species:S:1:pos:R:3:initial_magmoms:R:1 pbc="T T T"
Si       1.36083892       1.44363610      -1.23606897       0.00000000
Si       1.38621874      -1.33617097       1.36922398       0.00000000
Si      -1.36064996       1.43182585       1.31051765       0.00000000
Si      -1.22400194      -1.47913201      -1.40016719       0.00000000
Si      -2.68605324      -2.65921220       0.01203185       0.00000000
Si      -0.00078192       2.65267991      -2.70371489       0.00000000
Si      -2.67085467       0.09146835       2.73308264       0.00000000
Si       0.03965638      -2.65779497       2.75531414       0.00000000
Si       2.80427954       0.26487540      -2.60049305       0.00000000
Si       0.03054375       2.75846718       2.70714589       0.00000000
