10
Lattice="16.290000149 0.0 0.0 0.0 16.290000149 0.0 0.0 0.0 29.1751946751" Properties=species:S:1:pos:R:3:initial_magmoms:R:1 pbc="T T T"
Si      -1.47314707       1.19034289       1.33922896       0.00000000
Si       1.17357071       1.53806923      -1.30769058       0.00000000
Si      -0.22452833      -1.84225241      -1.44256750       0.00000000
Si       1.44010769      -1.17250534       1.45298305       0.00000000
H       -2.95892540      -1.24465375      -1.42372032       0.00000000
Si       2.08615281      -2.01616445      -2.03208148       0.00000000
Si       2.54000850       0.19401390      -2.63475348       0.00000000
Si      -2.62667456      -0.43201080       2.53482844       0.00000000
Si       3.15715515      -1.93189628       0.07063315       0.00000000
Si       0.00093016       2.54174501       2.69823870       0.00000000
