10
Lattice="16.290000149 0.0 0.0 0.0 16.290000149 0.0 0.0 0.0 29.1751946751" Properties=species:S:1:pos:R:3:initial_magmoms:R:1 pbc="T T T"
Si      -1.35790183      -0.57834388      -0.27281725       0.00000000
H        0.91456948      -1.77596840      -0.45028995       0.00000000
H        1.58873113      -0.85667482       1.17068386       0.00000000
Si       1.05819841      -1.11334006       2.55784767       0.00000000
Si      -2.72433962       0.76571146       1.05424566       0.00000000
Si      -1.83612737      -0.15887637      -2.48240061       0.00000000
Si       2.04563306      -1.84037906      -1.45371243       0.00000000
Si      -1.18690570       2.07353783       2.25010771       0.00000000
Si      -0.00576666       1.13296951      -3.11909089       0.00000000
Si      -1.81175753      -2.78852223       0.32985475       0.00000000
