10
Lattice="16.290000149 0.0 0.0 0.0 16.290000149 0.0 0.0 0.0 29.1751946751" Properties=species:S:1:pos:R:3:initial_magmoms:R:1 pbc="T T T"
Si       1.32038596      -1.44083422       1.27521858       0.00000000
Si      -1.34811154      -1.36264222      -1.34783564       0.00000000
Si       1.38901573       1.35938422      -1.31308799       0.00000000
Si      -1.29055897       1.36863694       1.41196272       0.00000000
Si       2.74638000      -0.05113431       2.45477170       0.00000000
Si       0.01884753       2.70076799      -2.66626269       0.00000000
Si      -2.66460419       2.71992503       0.06616934       0.00000000
Si      -2.71528238      -0.00610875      -2.67612391       0.00000000
Si      -0.06400341      -2.77638618       2.61508940       0.00000000
Si       2.74098801      -0.01184283      -2.66264497       0.00000000
