10
Lattice="16.290000149 0.0 0.0 0.0 16.290000149 0.0 0.0 0.0 29.1751946751" Properties=species:S:1:pos:R:3:initial_magmoms:R:1 pbc="T T T"
Si      -1.35630541       1.35547462       1.35661738       0.00000000
Si      -1.39176874      -1.34086249      -1.33508608       0.00000000
Si       1.33102333      -1.36798534       1.37412249       0.00000000
Si       1.36410832       1.34532595      -1.36700375       0.00000000
Si      -0.03554478      -2.74001223      -2.62002001       0.00000000
Si      -2.70004472       2.70953201      -0.00913184       0.00000000
Si       2.71083521       2.70267392      -0.00522236       0.00000000
Si       2.69060303      -2.72602727       0.03533116       0.00000000
Si       2.70591563      -0.02122587       2.71720258       0.00000000
Si      -2.72432659      -0.00842193       2.70130210       0.00000000
