10
Lattice="16.290000149 0.0 0.0 0.0 16.290000149 0.0 0.0 0.0 29.1751946751" Properties=species:S:1:pos:R:3:initial_magmoms:R:1 pbc="T T T"
Si       0.61072840      -1.30294752       0.45335335       0.00000000
Si      -1.50783499       1.46792449       0.62318216       0.00000000
H        2.01528479       0.34081938      -1.41788529       0.00000000
Si      -0.02963151       2.67105503      -0.76654906       0.00000000
Si       1.11304684       1.24178671      -2.22883900       0.00000000
Si      -2.82557953      -0.23363118      -0.51161621       0.00000000
Si      -1.60720562      -1.51974950      -2.11639780       0.00000000
Si      -0.22778307      -2.96518728      -0.95151980       0.00000000
Si      -0.22358025       1.64414971       2.64724046       0.00000000
Si       2.91897255      -1.21933909       0.07725592       0.00000000
