10
Lattice="16.2900001489832 0.0 0.0 0.0 16.2900001489832 0.0 0.0 0.0 29.40185373716267" Properties=species:S:1:pos:R:3:initial_magmoms:R:1 pbc="T T T"
Si      -1.43052265       1.34461571       1.30447204       0.00000000
Si       1.40268304       1.34389895      -1.34272386       0.00000000
Si       1.36425493      -1.26014049       1.46015486       0.00000000
Si      -1.31435866      -1.28865858      -1.49040937       0.00000000
Si      -2.63293643      -2.67406217      -0.17114819       0.00000000
Si       2.72875421      -2.64184055       0.06306698       0.00000000
Si      -2.71880102       2.67151767      -0.11078618       0.00000000
Si      -0.02686547      -2.68684982       2.74863230       0.00000000
Si       2.78373297      -0.03660689      -2.65448756       0.00000000
Si       2.76496689       2.67485712       0.01281921       0.00000000
