10
Lattice="16.2900001489832 0.0 0.0 0.0 16.2900001489832 0.0 0.0 0.0 29.40185373716267" Properties=species:S:1:pos:R:3:initial_magmoms:R:1 pbc="T T T"
Si       1.11320974       1.45112950      -1.45545056       0.00000000
Si       1.56183634      -1.38302101       1.06708148       0.00000000
Si      -1.75018133      -0.63250813      -1.46138974       0.00000000
Si      -1.46551357       1.42965928       1.31106335       0.00000000
H       -2.51445926      -1.82635337      -0.92704045       0.00000000
Si      -2.85290031       1.37971414      -0.70011694       0.00000000
Si      -0.96806584       2.37974096      -2.01261569       0.00000000
Si       0.10280619      -2.66745494       2.43276230       0.00000000
Si       2.98533801      -2.03636405      -0.80075949       0.00000000
Si       0.04733874       2.76602574       2.57829854       0.00000000
