10
Lattice="16.2900001489832 0.0 0.0 0.0 16.2900001489832 0.0 0.0 0.0 29.40185373716267" Properties=species:S:1:pos:R:3:initial_magmoms:R:1 pbc="T T T"
Si      -0.35326494       1.38961846      -1.80256885       0.00000000
Si      -0.98995960      -2.06363351      -0.41921163       0.00000000
Si       2.30931929      -0.21157452       0.50694676       0.00000000
Si      -1.22720716       0.91678492       1.84796531       0.00000000
H       -1.56269971       0.77828734      -2.51676928       0.00000000
Si       1.49077285      -1.33222879       2.44100070       0.00000000
H        2.46708794       0.16311177      -2.09358840       0.00000000
Si       0.70549384      -3.07336917       1.06017204       0.00000000
Si      -3.20183211      -1.23013936       0.30719057       0.00000000
Si       1.50517158       0.84730807      -3.05179481       0.00000000
