10
Lattice="16.2900001489832 0.0 0.0 0.0 16.2900001489832 0.0 0.0 0.0 29.40185373716267" Properties=species:S:1:pos:R:3:initial_magmoms:R:1 pbc="T T T"
Si      -1.44529768      -1.32180319       1.30964677       0.00000000
Si      -1.39031893       1.28343047      -1.40790777       0.00000000
Si       1.32256882      -1.33547050      -1.46397710       0.00000000
Si       1.35615880       1.32877694       1.46324205       0.00000000
Si       2.68525991       2.64305252      -0.03216563       0.00000000
Si      -0.08689086      -2.71860554       2.61970517       0.00000000
Si      -0.02638980       2.69276960      -2.69846685       0.00000000
Si       2.69983946      -2.69382845      -0.07570977       0.00000000
Si      -2.77136886       2.66393630      -0.09614406       0.00000000
Si      -2.76965841      -2.72626184      -0.08029646       0.00000000
