10
Lattice="16.2900001489832 0.0 0.0 0.0 16.2900001489832 0.0 0.0 0.0 29.40185373716267" Properties=species:S:1:pos:R:3:initial_magmoms:R:1 pbc="T T T"
Si      -1.48944358      -1.40791213       1.24699142       0.00000000
Si      -1.34475580       1.38429326      -1.42995916       0.00000000
Si       1.32981787      -1.32043483      -1.50655099       0.00000000
Si       1.38249973       1.57243951       1.18948139       0.00000000
H       -0.04603554       0.80794491       3.44816120       0.00000000
Si      -2.96502438       0.02907765       2.46169961       0.00000000
Si      -2.78780547      -2.66308922      -0.27349604       0.00000000
Si       2.71827974       2.73636164      -0.36772898       0.00000000
Si      -2.70091460       0.05551632      -2.89320121       0.00000000
Si       2.78246235      -2.80116327      -0.33897397       0.00000000
