10
Lattice="16.2900001489832 0.0 0.0 0.0 16.2900001489832 0.0 0.0 0.0 29.40185373716267" Properties=species:S:1:pos:R:3:initial_magmoms:R:1 pbc="T T T"
H       -0.45076059       1.09778311       0.95982352       0.00000000
Si       0.99900055       1.46139220      -1.59396270       0.00000000
Si      -2.18554787      -0.92132983      -0.36164280       0.00000000
Si       1.31527269      -1.35203743       1.50893254       0.00000000
H       -0.02127474      -2.22254246      -1.90547534       0.00000000
H       -1.93997612       1.41574762      -2.02328856       0.00000000
H        0.64070200       1.21655350      -3.07222910       0.00000000
Si      -0.55586368      -2.12566583       2.75245454       0.00000000
Si       0.23817609       3.52515603      -0.68147617       0.00000000
Si      -1.98172739      -2.87044464       0.96696817       0.00000000
