10
Lattice="16.2900001489832 0.0 0.0 0.0 16.2900001489832 0.0 0.0 0.0 29.40185373716267" Properties=species:S:1:pos:R:3:initial_magmoms:R:1 pbc="T T T"
Si      -0.78861520      -1.36790389       1.67705234       0.00000000
Si       1.95080897      -1.11439891      -0.54075889       0.00000000
Si      -0.96858712       0.17772390      -2.09520550       0.00000000
Si       0.45636435       2.11059758       0.98325679       0.00000000
Si       0.92870920       0.98383456      -3.33237670       0.00000000
Si       3.52704567       0.57231658      -0.75900885       0.00000000
Si       1.16906815      -1.76961530       2.99681334       0.00000000
Si      -0.46737639      -3.57480144       0.93965384       0.00000000
Si      -1.60432066       2.78260896       1.95290053       0.00000000
Si      -2.73577521       1.85733695      -1.95460583       0.00000000
