10
Lattice="16.2900001489832 0.0 0.0 0.0 16.2900001489832 0.0 0.0 0.0 29.40185373716267" Properties=species:S:1:pos:R:3:initial_magmoms:R:1 pbc="T T T"
Si      -1.16312230      -1.57913632      -1.29894450       0.00000000
Si       1.69129298       1.12526434      -1.22538106       0.00000000
Si       1.27146709      -1.29150379       1.60925166       0.00000000
Si      -1.70321726       1.81113851       0.22692351       0.00000000
Si       1.74376307       0.48477411       3.14247013       0.00000000
Si       0.39346215       2.47032965      -2.66089717       0.00000000
Si      -2.45140067      -0.25223436      -2.71420273       0.00000000
Si      -3.56322576       1.06991092      -1.11915216       0.00000000
Si      -2.57733866      -2.94412268       0.05362898       0.00000000
Si       0.26740035      -2.92375203      -2.60341654       0.00000000
