10
Lattice="16.2900001489832 0.0 0.0 0.0 16.2900001489832 0.0 0.0 0.0 29.40185373716267" Properties=species:S:1:pos:R:3:initial_magmoms:R:1 pbc="T T T"
H       -0.59964957      -0.52728776      -1.34093034       0.00000000
Si       2.30360313      -0.20686834      -0.20128509       0.00000000
Si      -1.20524661      -1.14202463       1.62362917       0.00000000
Si      -0.96777099       2.11142511       0.15803496       0.00000000
H       -1.01341557       1.55060928      -2.61194308       0.00000000
Si      -3.22633064       1.18858031      -0.24973935       0.00000000
Si       3.00193915       1.03680638       1.70983540       0.00000000
Si      -2.01414286      -1.36570800      -2.74660357       0.00000000
Si      -3.21155561       0.10179621       1.81400617       0.00000000
Si       0.03531020      -0.99426016       3.59496466       0.00000000
