10
Lattice="16.2900001489832 0.0 0.0 0.0 16.2900001489832 0.0 0.0 0.0 29.40185373716267" Properties=species:S:1:pos:R:3:initial_magmoms:R:1 pbc="T T T"
Si      -1.38074041       1.28575342      -1.41543464       0.00000000
Si       1.40353012      -1.36891387      -1.32287761       0.00000000
Si       1.35439948       1.46999332       1.26763152       0.00000000
Si      -1.36819711      -1.41602455       1.31570355       0.00000000
Si       2.65711079       0.11448612       2.65022429       0.00000000
Si       0.01449810      -2.71814942      -2.64216230       0.00000000
Si      -0.02847492       2.66950748      -2.70886335       0.00000000
Si      -2.70927137      -0.04186530       2.68091983       0.00000000
Si      -2.68848533       2.70918992      -0.08150194       0.00000000
Si       2.71410950       2.74302426      -0.15015527       0.00000000
