10
Lattice="16.2900001489832 0.0 0.0 0.0 16.2900001489832 0.0 0.0 0.0 29.40185373716267" Properties=species:S:1:pos:R:3:initial_magmoms:R:1 pbc="T T T"
Si       1.13269258      -0.06255360      -0.97887592       0.00000000
H       -1.75896164       0.09798435       0.07917919       0.00000000
H        0.29362725       1.60093234       1.83561653       0.00000000
H       -1.19050579      -2.21231234      -0.12583993       0.00000000
Si      -2.55505394       1.37953495      -0.00920278       0.00000000
Si       2.62143569       1.51267312       0.06050901       0.00000000
H        1.57403755       2.61596225       0.17376496       0.00000000
Si       0.46501434       1.26755749      -2.80690677       0.00000000
Si       1.37979559      -2.26080767      -1.70657180       0.00000000
Si      -1.44741538       2.43841754      -1.86587104       0.00000000
