10
Lattice="16.2900001489832 0.0 0.0 0.0 16.2900001489832 0.0 0.0 0.0 29.40185373716267" Properties=species:S:1:pos:R:3:initial_magmoms:R:1 pbc="T T T"
H       -0.52626474       1.39536883      -0.28164036       0.00000000
Si       0.40778757      -0.82008748      -2.12939986       0.00000000
Si       1.91665047       0.38392272       1.24657979       0.00000000
Si      -1.76186126      -1.13893165       1.11829951       0.00000000
H       -0.57684520       1.17823942      -2.45946507       0.00000000
Si       0.48955003       1.37231848       2.90957804       0.00000000
H       -2.45755829       1.80607232       1.17872032       0.00000000
Si      -1.83599705      -2.82971638      -0.47342865       0.00000000
Si       2.13721544       0.81158410      -2.53314611       0.00000000
Si      -1.05252949       2.87541309       1.59996067       0.00000000
