10
Lattice="16.2900001489832 0.0 0.0 0.0 16.2900001489832 0.0 0.0 0.0 29.40185373716267" Properties=species:S:1:pos:R:3:initial_magmoms:R:1 pbc="T T T"
Si       0.40718484      -0.59087089       2.22160407       0.00000000
Si      -2.11877516      -1.05370237      -0.00520413       0.00000000
Si       0.20836539       2.31944516      -0.46928299       0.00000000
Si       2.33551361      -0.48088080      -0.38601694       0.00000000
Si       2.16049385       1.53305191      -1.56958856       0.00000000
H        0.15736140      -2.59028921      -1.72782934       0.00000000
Si       2.72715780      -0.47125341       1.99841460       0.00000000
Si      -0.52274610       1.29137347       3.28218774       0.00000000
H        1.64657693      -2.90825373       1.25528274       0.00000000
Si      -3.14185233      -0.32335650       1.99859101       0.00000000
