10
Lattice="16.2900001489832 0.0 0.0 0.0 16.2900001489832 0.0 0.0 0.0 29.40185373716267" Properties=species:S:1:pos:R:3:initial_magmoms:R:1 pbc="T T T"
Si       1.20943477       0.61133113       0.71420043       0.00000000
Si      -1.06903126       1.57143115      -1.75540828       0.00000000
Si       1.71473429      -1.43765767      -1.68716657       0.00000000
Si      -2.78246235       0.60947407      -0.42859082       0.00000000
Si       0.32254200       0.06708222      -3.00048858       0.00000000
Si       1.56269971      -0.77828734       2.51676928       0.00000000
Si      -2.42281172       0.12919599       1.90188831       0.00000000
Si       3.06787129       0.06902073      -0.53502553       0.00000000
Si       0.62371153       2.66074346       1.60445916       0.00000000
Si       0.98995960      -3.27235152      -0.24003673       0.00000000
