10
Lattice="16.2900001489832 0.0 0.0 0.0 16.2900001489832 0.0 0.0 0.0 29.40185373716267" Properties=species:S:1:pos:R:3:initial_magmoms:R:1 pbc="T T T"
Si       0.59964957       0.52728776       1.34093034       0.00000000
Si      -1.41449329      -0.83842024      -1.40567323       0.00000000
H       -0.41376600       2.07789703      -1.27101274       0.00000000
Si      -0.36812142       2.63871287       1.49896531       0.00000000
Si      -0.60559705      -0.61473688       2.96455951       0.00000000
H        1.77248234      -0.72026887      -2.45037989       0.00000000
Si      -1.23947353      -2.85235296      -0.22210160       0.00000000
Si       2.90325270       0.32041942       1.13964525       0.00000000
Si      -2.62668107       1.71586807       1.09119100       0.00000000
Si      -3.36662175      -0.05202700      -0.30536765       0.00000000
