10
Lattice="16.2900001489832 0.0 0.0 0.0 16.2900001489832 0.0 0.0 0.0 29.40185373716267" Properties=species:S:1:pos:R:3:initial_magmoms:R:1 pbc="T T T"
Si      -0.17630667       1.54728937       0.11522586       0.00000000
Si       0.58888351      -1.80745697      -0.71361239       0.00000000
Si       0.73166536       1.37551132       2.30510533       0.00000000
Si      -2.44718156       1.35404110      -0.68653328       0.00000000
Si      -0.99123022      -2.75856492       0.78288316       0.00000000
Si      -0.18484263      -1.07041591      -2.83577939       0.00000000
Si       2.79103089      -1.43728300       0.20263758       0.00000000
Si       1.41768613       2.47072061      -1.36536328       0.00000000
Si      -2.24117822      -1.19448055       2.05480735       0.00000000
Si       2.65204786       0.09112626       2.00044332       0.00000000
