10
Lattice="16.2900001489832 0.0 0.0 0.0 16.2900001489832 0.0 0.0 0.0 29.40185373716267" Properties=species:S:1:pos:R:3:initial_magmoms:R:1 pbc="T T T"
Si      -0.91178389      -1.90249283      -1.07739006       0.00000000
Si       1.34286616       1.40038615      -1.36822114       0.00000000
Si      -1.31900131       1.32206383       1.47103649       0.00000000
Si       1.35907471      -1.32756985       1.43009735       0.00000000
H       -2.81989677       0.25044246      -1.83603404       0.00000000
Si       2.49313565      -0.17778906      -2.62041669       0.00000000
Si      -2.69133608       2.68465718       0.12328491       0.00000000
Si       2.70453098       2.68123628       0.07413677       0.00000000
Si       2.64943820      -2.79930621       0.11083029       0.00000000
Si      -2.65253330      -2.81351109       0.16103395       0.00000000
