10
Lattice="16.2900001489832 0.0 0.0 0.0 16.2900001489832 0.0 0.0 0.0 29.40185373716267" Properties=species:S:1:pos:R:3:initial_magmoms:R:1 pbc="T T T"
Si       2.28697756      -0.54095833      -0.52014819       0.00000000
Si      -0.30500582      -1.25056702       2.04866236       0.00000000
Si      -1.47249205      -1.29173185      -1.44227853       0.00000000
Si      -1.10143207       2.17735400       0.38163606       0.00000000
H        0.73203188       2.09262971      -1.67740516       0.00000000
H       -1.37019590      -2.37198692       1.79010246       0.00000000
Si       1.80249666      -2.82838386      -1.23140844       0.00000000
Si      -2.85549856       1.43856991       1.88010154       0.00000000
Si      -1.58931865       0.18534762       3.41208513       0.00000000
Si      -3.34362842      -2.06536025      -0.19875653       0.00000000
