10
Lattice="16.2900001489832 0.0 0.0 0.0 16.2900001489832 0.0 0.0 0.0 29.40185373716267" Properties=species:S:1:pos:R:3:initial_magmoms:R:1 pbc="T T T"
H        0.29486529      -1.64633258       0.43661753       0.00000000
Si      -2.13801365       0.01612710      -0.90648855       0.00000000
Si      -0.00094482       1.40786326       1.87410356       0.00000000
Si       1.43404129       0.09832644      -1.85284602       0.00000000
H        1.59975946      -0.93025675       1.70901215       0.00000000
Si      -0.37159119      -3.04991157       1.03632714       0.00000000
Si      -2.83291248       2.21245895      -0.53799512       0.00000000
Si      -0.09891288       0.98411149      -3.51649111       0.00000000
Si       1.88876036      -2.16824789      -2.29125706       0.00000000
Si      -1.65970667       3.05165460       1.34463498       0.00000000
