10
Lattice="16.2900001489832 0.0 0.0 0.0 16.2900001489832 0.0 0.0 0.0 29.40185373716267" Properties=species:S:1:pos:R:3:initial_magmoms:R:1 pbc="T T T"
Si      -1.38489436       1.78189796      -0.69014971       0.00000000
Si       2.05648220       1.17305920       0.05783345       0.00000000
Si       0.25482447      -1.89530894      -1.45836135       0.00000000
Si      -1.13024908      -1.02687274       1.92070550       0.00000000
Si      -1.62383608       2.50551605       1.51898797       0.00000000
H       -2.38811402       1.31167081       2.05333726       0.00000000
Si      -2.15780600      -2.21100588      -1.56020937       0.00000000
Si       1.09962388      -3.35610818       0.18784844       0.00000000
Si      -3.03565782      -1.91161523       0.71864011       0.00000000
Si      -0.02751381      -3.11280074       2.24321443       0.00000000
