10
Lattice="16.2900001489832 0.0 0.0 0.0 16.2900001489832 0.0 0.0 0.0 29.40185373716267" Properties=species:S:1:pos:R:3:initial_magmoms:R:1 pbc="T T T"
Si      -1.35739684      -1.37287234      -1.38884654       0.00000000
Si       1.37727064      -1.35835795       1.38826733       0.00000000
Si      -1.32256882       1.33547050       1.46397710       0.00000000
Si       1.28767564       1.37777840      -1.46298332       0.00000000
Si      -2.71288775       2.61890097       0.05606934       0.00000000
Si       2.68556942       2.67027474      -0.06721264       0.00000000
Si       2.70402599      -2.71930601      -0.04325013       0.00000000
Si      -2.69713532      -2.73644310       0.01628863       0.00000000
Si       2.66613545      -0.01369989      -2.78574626       0.00000000
Si      -2.72973161      -0.01027899      -2.73659812       0.00000000
