10
Lattice="16.2900001489832 0.0 0.0 0.0 16.2900001489832 0.0 0.0 0.0 29.40185373716267" Properties=species:S:1:pos:R:3:initial_magmoms:R:1 pbc="T T T"
Si      -1.35840682       1.39680235      -1.31005840       0.00000000
Si       1.29836188       1.25517709       1.52048746       0.00000000
Si      -1.35277048      -1.37249767       1.37341939       0.00000000
Si       1.44546058      -1.35922132      -1.31552714       0.00000000
Si       1.92596672      -0.59341213       2.99728377       0.00000000
Si       0.30980322      -2.35704899       2.74786785       0.00000000
Si       0.08689086       2.71860554      -2.61970517       0.00000000
Si      -2.66352905      -2.70759350      -0.05627515       0.00000000
Si      -2.68276754      -0.00765630      -2.70000163       0.00000000
Si       0.07965810      -2.72725553      -2.69109287       0.00000000
