10
Lattice="16.2900001489832 0.0 0.0 0.0 16.2900001489832 0.0 0.0 0.0 29.40185373716267" Properties=species:S:1:pos:R:3:initial_magmoms:R:1 pbc="T T T"
Si      -0.79822630      -1.47638861      -1.65303102       0.00000000
Si       0.37258488       2.25984493      -0.58527330       0.00000000
Si       2.19382319      -0.83205248       0.51482646       0.00000000
Si      -1.55983267       0.16275176       1.97409926       0.00000000
H        2.97867540       1.31082210      -1.06478813       0.00000000
Si       1.45681471       2.73192914       1.49858308       0.00000000
Si      -2.63914292      -0.13918013      -2.20887307       0.00000000
Si       2.93376387       0.93584259       1.91138511       0.00000000
Si       1.98545780      -3.15149764       0.98410945       0.00000000
Si       2.36871263       2.42080642      -1.87736716       0.00000000
