10
Lattice="16.2900001489832 0.0 0.0 0.0 16.2900001489832 0.0 0.0 0.0 29.40185373716267" Properties=species:S:1:pos:R:3:initial_magmoms:R:1 pbc="T T T"
Si       0.84479941      -1.46079925       1.64620979       0.00000000
Si      -0.25482447       1.89530894       1.45836135       0.00000000
Si      -2.41263047      -0.31569694      -0.10184802       0.00000000
Si       1.55983267      -0.16275176      -1.97409926       0.00000000
Si      -1.38507355       0.86843620       3.37906684       0.00000000
Si       0.40343814      -3.63760590       1.00860119       0.00000000
Si       1.93241756       2.09709317      -2.55937256       0.00000000
Si       1.80165773       3.06836814       1.51619479       0.00000000
Si      -0.28233828      -1.21749181       3.70157578       0.00000000
Si      -3.29048229      -0.01630629       2.17700146       0.00000000
