10
Lattice="16.2900001489832 0.0 0.0 0.0 16.2900001489832 0.0 0.0 0.0 29.40185373716267" Properties=species:S:1:pos:R:3:initial_magmoms:R:1 pbc="T T T"
Si       1.42807915      -1.30642543      -1.34642849       0.00000000
Si       1.36407574       1.31683474       1.40484997       0.00000000
Si      -1.33317687       1.41786532      -1.34434096       0.00000000
Si      -1.44102970      -1.14712552       1.49811265       0.00000000
Si      -0.33282099       2.35424711       2.60926751       0.00000000
Si      -1.58001273       0.38128374       3.29591840       0.00000000
Si       2.60363072       2.75823912       0.01534777       0.00000000
Si      -0.05400135      -2.87070528       2.48513288       0.00000000
Si       0.11732058      -2.64152126      -2.77612303       0.00000000
Si       3.09065286      -2.29097675       0.02801997       0.00000000
