10
Lattice="16.2900001489832 0.0 0.0 0.0 16.2900001489832 0.0 0.0 0.0 29.40185373716267" Properties=species:S:1:pos:R:3:initial_magmoms:R:1 pbc="T T T"
Si       1.30785895      -1.48496383      -1.25616480       0.00000000
Si      -1.28150173      -1.29344230       1.47802237       0.00000000
Si       1.49043727       1.37489882       1.29500465       0.00000000
Si      -1.53779230       0.49916470      -1.80074593       0.00000000
Si       1.76709035      -0.30621942      -3.21012379       0.00000000
Si      -2.64316655      -2.57429243       0.03566445       0.00000000
Si       0.09874998       2.70715367       2.72877722       0.00000000
Si      -2.65996154       0.09803599       2.80078530       0.00000000
Si       0.11194488      -2.68428251       2.79080926       0.00000000
Si      -0.41065461       0.25585726      -3.85611192       0.00000000
