10
Lattice="16.2900001489832 0.0 0.0 0.0 16.2900001489832 0.0 0.0 0.0 29.40185373716267" Properties=species:S:1:pos:R:3:initial_magmoms:R:1 pbc="T T T"
Si      -1.37987704       1.37538100      -1.35959758       0.00000000
Si       1.33620355       1.38491065       1.41426739       0.00000000
Si      -1.36081774      -1.31662134       1.46777876       0.00000000
Si       1.39168729      -1.33225486      -1.43377258       0.00000000
Si      -2.56751579       2.69133608       0.24060419       0.00000000
Si      -2.75871153      -2.60911768       0.07200808       0.00000000
Si       2.66465306      -2.71327871       0.02376846       0.00000000
Si       0.07915311       2.65981493      -2.72527840       0.00000000
Si       2.68752422      -0.00912240       2.74696521       0.00000000
Si      -0.09874998      -2.70715367      -2.72877722       0.00000000
