10
Lattice="16.2900001489832 0.0 0.0 0.0 16.2900001489832 0.0 0.0 0.0 29.40185373716267" Properties=species:S:1:pos:R:3:initial_magmoms:R:1 pbc="T T T"
Si      -1.24994800       1.56408436       1.27192419       0.00000000
Si       1.58011372       0.95110795      -1.49649555       0.00000000
Si       1.29189475      -1.57113793       1.26377988       0.00000000
Si      -1.46640952      -1.58043952      -1.19906640       0.00000000
H        0.99123022       2.75856492      -0.78288316       0.00000000
Si       2.16583697      -1.09830439      -2.38675428       0.00000000
Si       2.51910191      -2.48792285      -0.58418543       0.00000000
Si      -0.46170747      -2.98359498       1.97806851       0.00000000
H        0.95640220      -1.70963552      -3.10095471       0.00000000
Si      -0.68273020      -3.71806221      -0.27699486       0.00000000
