10
Lattice="16.2900001489832 0.0 0.0 0.0 16.2900001489832 0.0 0.0 0.0 29.40185373716267" Properties=species:S:1:pos:R:3:initial_magmoms:R:1 pbc="T T T"
Si       0.73994068       1.76789507       1.39655865       0.00000000
Si       1.95212846      -0.78639324      -1.10030557       0.00000000
Si      -0.20836539      -2.31944516       0.46928299       0.00000000
Si      -2.19382319       0.83205248      -0.51482646       0.00000000
H        0.78485221       2.14287459      -1.57961459       0.00000000
H        3.36662175       0.05202700       0.30536765       0.00000000
Si       2.12714822      -2.80032596       0.08326605       0.00000000
Si       0.75471571       0.68111097       3.46030417       0.00000000
Si      -2.99204949      -0.64433613      -2.16785748       0.00000000
Si      -1.82123831       3.09189741      -1.10009976       0.00000000
