10
Lattice="16.2900001489832 0.0 0.0 0.0 16.2900001489832 0.0 0.0 0.0 29.40185373716267" Properties=species:S:1:pos:R:3:initial_magmoms:R:1 pbc="T T T"
H        0.78591106      -0.91755055      -0.89352234       0.00000000
Si      -2.22141845      -0.50596740      -0.46331441       0.00000000
Si       0.69186889       0.40506714       2.18358747       0.00000000
Si       0.08327448       2.24927435      -0.64604693       0.00000000
H        0.93744064       2.74214460       0.52194171       0.00000000
H        2.85614202      -0.89614549       0.63975494       0.00000000
H        2.06632136       0.09747936      -2.55537391       0.00000000
Si      -2.06277014      -1.13894794      -2.73834165       0.00000000
Si      -0.98298748       2.00191070       2.93630433       0.00000000
H        0.49228380      -2.51848289      -2.72913887       0.00000000
