10
Lattice="16.2900001489832 0.0 0.0 0.0 16.2900001489832 0.0 0.0 0.0 29.40185373716267" Properties=species:S:1:pos:R:3:initial_magmoms:R:1 pbc="T T T"
Si      -1.43887942       0.38431368       0.32618417       0.00000000
H        1.76279516       0.51215760      -0.49198122       0.00000000
H       -0.31469022      -2.47270799       0.45625797       0.00000000
H        1.13710717      -0.02723688       2.48463305       0.00000000
Si      -1.45995868       2.72354141       0.20878256       0.00000000
Si      -2.95819887      -0.34868745      -1.29412259       0.00000000
Si      -2.29773710      -0.32091300       2.36558495       0.00000000
H        1.47792655       2.77395897       1.20185958       0.00000000
Si       3.06091709       0.77384017      -1.24899075       0.00000000
Si       0.73270792      -3.57599712       0.34300203       0.00000000
