10
Lattice="16.2900001489832 0.0 0.0 0.0 16.2900001489832 0.0 0.0 0.0 29.40185373716267" Properties=species:S:1:pos:R:3:initial_magmoms:R:1 pbc="T T T"
Si       1.91133830      -0.77740768      -1.04705882       0.00000000
Si      -1.90547390       0.36046512      -1.33502057       0.00000000
Si       0.72466066       2.15686118       0.73742789       0.00000000
Si      -0.94348423      -1.20417310       1.85408090       0.00000000
Si       2.90468622      -1.02659581       1.13350027       0.00000000
Si      -2.10926180       0.75616552       2.52085614       0.00000000
Si      -3.00056916       1.52930521       0.45543471       0.00000000
Si      -1.74959489      -3.09474165       0.69123758       0.00000000
Si      -0.22131594       2.14203728       2.93189405       0.00000000
Si       2.31370130       0.91202824      -2.66380795       0.00000000
