10
Lattice="16.2900001489832 0.0 0.0 0.0 16.2900001489832 0.0 0.0 0.0 29.40185373716267" Properties=species:S:1:pos:R:3:initial_magmoms:R:1 pbc="T T T"
Si      -1.99132220       1.03197151      -0.84251012       0.00000000
Si      -0.00579924      -2.34387038       0.53017423       0.00000000
Si       0.78578074       1.42122106       1.78139951       0.00000000
Si       1.40440978      -0.04109967      -1.97018882       0.00000000
Si       3.50350662      -0.08480574      -0.93121551       0.00000000
Si      -1.60153507       1.18060147      -3.18821941       0.00000000
Si       2.08140590       3.05186637       0.75909706       0.00000000
Si      -2.12571470      -3.21009114       0.31621694       0.00000000
Si       0.69789619       1.70655671      -3.40379380       0.00000000
Si       1.08929602      -3.51271047      -1.26028106       0.00000000
