10
Lattice="16.2900001489832 0.0 0.0 0.0 16.2900001489832 0.0 0.0 0.0 29.40185373716267" Properties=species:S:1:pos:R:3:initial_magmoms:R:1 pbc="T T T"
Si      -1.41393943      -1.36260964      -1.27083632       0.00000000
Si       1.34956135       1.39064473      -1.32005503       0.00000000
Si      -1.29192733       1.27646812       1.49329075       0.00000000
Si       1.31103550      -1.25814187       1.50061181       0.00000000
Si      -2.14563737      -0.50994216       2.78226802       0.00000000
Si       0.46677366       2.24815034       2.71702530       0.00000000
Si       2.23005215       0.56821150       2.73831225       0.00000000
Si      -0.40239558      -2.22009896       2.82742926       0.00000000
Si      -2.74870947       0.07837119      -2.56816372       0.00000000
Si      -0.03652218      -2.73020402      -2.60365176       0.00000000
