10
Lattice="16.2900001489832 0.0 0.0 0.0 16.2900001489832 0.0 0.0 0.0 29.40185373716267" Properties=species:S:1:pos:R:3:initial_magmoms:R:1 pbc="T T T"
Si      -0.82606591      -1.07561242       1.92899682       0.00000000
Si      -1.95768335       0.40171140      -1.31976101       0.00000000
Si       0.72931960       2.03147705       1.11747625       0.00000000
Si       1.65047024      -1.63860460      -0.94324087       0.00000000
H       -1.60182829      -2.63225584      -0.79911298       0.00000000
Si      -1.63644455      -1.80518614      -2.05715950       0.00000000
H       -0.20170278      -2.01952670      -2.58174737       0.00000000
Si       1.12427065      -0.46752300       3.15593618       0.00000000
Si       3.52802307      -0.90284068       0.19519891       0.00000000
Si      -1.16906815       1.76961530      -2.99681334       0.00000000
