10
Lattice="16.2900001489832 0.0 0.0 0.0 16.2900001489832 0.0 0.0 0.0 29.40185373716267" Properties=species:S:1:pos:R:3:initial_magmoms:R:1 pbc="T T T"
Si      -0.49906044       0.74451817       2.17053305       0.00000000
Si      -1.75870100      -0.97168222      -1.22373455       0.00000000
Si       0.84445732       1.77909608      -1.31405705       0.00000000
Si       1.76327849      -1.67993885       0.02128694       0.00000000
H        1.94812112      -0.60952294       2.85706633       0.00000000
Si       2.24093387       0.53097255      -2.70253019       0.00000000
Si      -0.46677366      -2.24815034      -2.71702530       0.00000000
Si       1.77181445       0.93776644       2.97229220       0.00000000
Si       2.02913129       3.18466408       0.12566352       0.00000000
Si      -2.61241103      -2.75809251       0.06524271       0.00000000
