10
Lattice="16.2900001489832 0.0 0.0 0.0 16.2900001489832 0.0 0.0 0.0 29.40185373716267" Properties=species:S:1:pos:R:3:initial_magmoms:R:1 pbc="T T T"
Si       0.57024775      -0.53436087      -1.47203321       0.00000000
Si      -1.43470918      -0.06185313       1.08534003       0.00000000
H        1.49578039       1.21098232       1.21950069       0.00000000
Si      -1.04591575      -2.29799774      -1.72144913       0.00000000
Si      -1.89113870      -2.35177103       0.52008939       0.00000000
Si      -2.77249287       1.30981375      -0.34461913       0.00000000
H       -0.01407456       2.91735625       1.03497465       0.00000000
Si      -0.05735709       1.31422834      -2.94882952       0.00000000
Si       2.76037311      -1.41628519      -1.00980667       0.00000000
Si      -1.53293788       2.75121813      -1.73412133       0.00000000
