10
Lattice="16.2900001489832 0.0 0.0 0.0 16.2900001489832 0.0 0.0 0.0 29.40185373716267" Properties=species:S:1:pos:R:3:initial_magmoms:R:1 pbc="T T T"
Si      -1.00810666      -2.07669809       0.68762115       0.00000000
Si       1.77277556       0.51891795       1.57435166       0.00000000
Si      -1.57302757       1.53215596       1.03582731       0.00000000
Si       0.64132102      -0.40635405      -2.33315470       0.00000000
H       -1.41525892       1.90684226      -1.56470785       0.00000000
Si       0.58792240      -2.78505246       2.32286405       0.00000000
Si      -3.17685302      -1.32963868       1.58905259       0.00000000
Si      -2.39157402       0.41150169       2.96988125       0.00000000
Si       1.45867177      -0.86395645       3.44777898       0.00000000
Si       3.83346058      -0.15309342       0.60470793       0.00000000
