10
Lattice="16.2900001489832 0.0 0.0 0.0 16.2900001489832 0.0 0.0 0.0 29.40185373716267" Properties=species:S:1:pos:R:3:initial_magmoms:R:1 pbc="T T T"
Si       1.39647655      -1.24812352      -1.38847314       0.00000000
Si       1.18467397       1.40556800       1.43972057       0.00000000
Si      -1.37969785       1.39019187      -1.32173093       0.00000000
Si      -0.84445732      -1.77909608       1.31405705       0.00000000
Si       2.69775434      -2.56070657       0.06436066       0.00000000
Si      -0.51961842       2.32324724       2.87088520       0.00000000
Si       2.52134993       0.08210160       2.80576010       0.00000000
Si      -2.60315831      -2.75077830       0.09032249       0.00000000
Si       0.03833037      -2.63660168      -2.72302328       0.00000000
Si       2.59889033       2.77055436       0.08714709       0.00000000
