10
Lattice="16.2900001489832 0.0 0.0 0.0 16.2900001489832 0.0 0.0 0.0 29.40185373716267" Properties=species:S:1:pos:R:3:initial_magmoms:R:1 pbc="T T T"
Si       0.60046570      -0.44914788      -2.23601098       0.00000000
Si      -2.19012536       0.88192432      -0.46222654       0.00000000
Si       1.40882437       1.57208275       1.18951080       0.00000000
Si       0.36033480      -2.33559506       0.61817397       0.00000000
H       -2.76037311       1.41628519       1.00980667       0.00000000
H       -1.26459271       2.62726751       2.22930735       0.00000000
Si       2.70335810      -2.63958275       0.13962940       0.00000000
Si       2.34370748      -2.15930468      -2.19084973       0.00000000
Si      -1.29782431      -1.30212487      -3.41490770       0.00000000
Si       2.91981963       0.50494113       2.61062000       0.00000000
