10
Lattice="16.2900001489832 0.0 0.0 0.0 16.2900001489832 0.0 0.0 0.0 29.40185373716267" Properties=species:S:1:pos:R:3:initial_magmoms:R:1 pbc="T T T"
Si      -1.54650745       1.22549671       1.24043481       0.00000000
Si       1.32366025      -1.49667634       1.22305831       0.00000000
Si      -1.02120382      -0.71467489      -2.01364476       0.00000000
Si       1.14904774       2.02497734      -0.47857397       0.00000000
H        2.38843982      -0.29240550      -1.44489530       0.00000000
Si      -2.39998943       2.29249172      -0.70158703       0.00000000
Si      -1.37691226       1.56214585      -2.70538217       0.00000000
Si      -0.25163163      -2.59185305       2.56560576       0.00000000
Si       0.65365255      -2.31151844      -2.76636161       0.00000000
Si       2.77146660      -0.01192428       2.42659379       0.00000000
