10
Lattice="16.2900001489832 0.0 0.0 0.0 16.2900001489832 0.0 0.0 0.0 29.40185373716267" Properties=species:S:1:pos:R:3:initial_magmoms:R:1 pbc="T T T"
Si       1.35565381       1.68021578      -0.97508308       0.00000000
Si       1.33853302      -1.88323805      -0.53393766       0.00000000
Si      -2.22148361      -0.69206437      -0.54469874       0.00000000
Si       0.24128748       0.18261090       2.38978267       0.00000000
H       -2.22495338       2.52540614       0.35102873       0.00000000
Si      -1.76676455      -2.95863870      -0.98310978       0.00000000
H       -1.82019575       2.39164895      -1.96466127       0.00000000
Si       0.83065969       3.54698463       0.36111357       0.00000000
Si       0.18171495      -3.73721925       0.30954272       0.00000000
Si      -0.57376639      -1.79453900       3.30447434       0.00000000
