10
Lattice="16.2900001489832 0.0 0.0 0.0 16.2900001489832 0.0 0.0 0.0 29.40185373716267" Properties=species:S:1:pos:R:3:initial_magmoms:R:1 pbc="T T T"
Si      -1.31103550       1.25814187      -1.50061181       0.00000000
Si      -1.71343109      -0.96195709       1.32681745       0.00000000
Si       0.91901665       1.82635337       1.23770043       0.00000000
Si       1.39157326      -1.50434893      -1.24508030       0.00000000
H        1.06903126      -1.57143115       1.75540828       0.00000000
Si       2.27846603      -0.96010003       2.46960870       0.00000000
Si      -2.60296283       2.53460999      -0.00732106       0.00000000
Si      -3.45667287       0.74819971       1.28165621       0.00000000
Si      -2.63459801      -2.73838161       0.02837279       0.00000000
Si      -0.84426184       3.50629221       1.21641349       0.00000000
