10
Lattice="16.2900001489832 0.0 0.0 0.0 16.2900001489832 0.0 0.0 0.0 29.40185373716267" Properties=species:S:1:pos:R:3:initial_magmoms:R:1 pbc="T T T"
Si       1.13728636      -1.47395179      -1.45139311       0.00000000
Si      -0.80940124      -1.63984916       1.50608056       0.00000000
Si      -1.59809788       1.21411000      -1.27554062       0.00000000
Si       1.43625673       1.46844577       1.29391678       0.00000000
Si       1.14205933       0.53774919       3.43319566       0.00000000
Si       1.03498516      -1.79914907       3.02036423       0.00000000
Si      -0.22190238       2.50191596      -2.73916490       0.00000000
Si       2.49846248      -0.13168836      -2.81355159       0.00000000
Si       2.26128008      -3.17813016      -0.23618509       0.00000000
Si      -2.87008626      -0.96783778       2.47572429       0.00000000
