10
Lattice="16.2900001489832 0.0 0.0 0.0 16.2900001489832 0.0 0.0 0.0 29.40185373716267" Properties=species:S:1:pos:R:3:initial_magmoms:R:1 pbc="T T T"
Si      -0.31410378      -1.38287440       1.87342732       0.00000000
Si       2.06068502      -0.67201138      -0.96964373       0.00000000
Si       0.00100998       2.08873640       1.16351956       0.00000000
Si      -1.77277556      -0.51891795      -1.57435166       0.00000000
Si      -3.34580313       1.01323801      -0.53852435       0.00000000
Si      -1.18485316      -3.30397041       0.74851239       0.00000000
Si       2.10010682       2.04503033       2.20249286       0.00000000
Si       1.60432066      -2.78260896      -1.95290053       0.00000000
Si      -2.78088222      -2.59561604      -0.88673051       0.00000000
Si      -0.70550362       3.83639278      -0.27008543       0.00000000
