10
Lattice="16.2900001489832 0.0 0.0 0.0 16.2900001489832 0.0 0.0 0.0 29.40185373716267" Properties=species:S:1:pos:R:3:initial_magmoms:R:1 pbc="T T T"
Si      -1.36701162       1.30526884       1.44329584       0.00000000
Si       1.28893323      -1.40603878       1.42467564       0.00000000
Si       1.54232418       1.26855118      -1.30755630       0.00000000
Si      -1.37058554      -1.24906834      -1.50346085       0.00000000
H       -1.14430735       1.40001148      -2.84071596       0.00000000
Si      -0.07911727       2.52143138      -2.58215606       0.00000000
Si      -2.59681825      -2.71577108      -0.00373698       0.00000000
Si       2.70238396       2.64774404       0.17974235       0.00000000
Si      -2.78382745       2.67038714       0.13102348       0.00000000
Si       0.05651490      -2.23746410      -3.16645910       0.00000000
