10
Lattice="16.2900001489832 0.0 0.0 0.0 16.2900001489832 0.0 0.0 0.0 29.40185373716267" Properties=species:S:1:pos:R:3:initial_magmoms:R:1 pbc="T T T"
Si       1.35226549       1.38375406      -1.29342871       0.00000000
Si      -1.30774492       1.42343650       1.33393270       0.00000000
Si       1.38074041      -1.28575342       1.41543464       0.00000000
Si      -1.36018243      -1.30437289      -1.44615370       0.00000000
Si      -2.64523538      -2.62710461       0.01587700       0.00000000
Si      -2.62636179       0.01744659       2.66083836       0.00000000
Si       2.75400372      -0.02997360      -2.52854766       0.00000000
Si       0.05134608      -2.74743885      -2.66976182       0.00000000
Si       2.73513989       0.18423990       2.68306616       0.00000000
Si       0.01254330      -2.70177797       2.73113819       0.00000000
