10
Lattice="16.2900001489832 0.0 0.0 0.0 16.2900001489832 0.0 0.0 0.0 29.40185373716267" Properties=species:S:1:pos:R:3:initial_magmoms:R:1 pbc="T T T"
Si       2.02009685       0.27976446       1.20568182       0.00000000
Si       0.34853107       0.42521787      -2.32945007       0.00000000
Si      -1.25489185       1.81641647       0.99481172       0.00000000
Si       0.26879152      -2.47365281       0.12172367       0.00000000
H       -2.44526912      -2.10699749       0.19540472       0.00000000
Si       3.25535128      -0.62097481      -0.64425342       0.00000000
Si       2.06561111      -1.14841243      -2.60876768       0.00000000
H       -2.59143929       0.94591144      -2.41959615       0.00000000
Si       1.80532949      -1.45010323       2.92501402       0.00000000
Si       1.05049976      -3.13193172      -1.95675217       0.00000000
