10
Lattice="16.2900001489832 0.0 0.0 0.0 16.2900001489832 0.0 0.0 0.0 29.40185373716267" Properties=species:S:1:pos:R:3:initial_magmoms:R:1 pbc="T T T"
Si       1.26617991      -1.25322229       1.53198359       0.00000000
Si      -1.44780634      -1.48475206      -1.20353548       0.00000000
Si      -1.40237353       1.48009312       1.30770625       0.00000000
Si       1.75406649       0.73878409      -1.49846548       0.00000000
Si      -2.77146660       0.01192428      -2.42659379       0.00000000
Si       2.85549856      -1.43856991      -1.88010154       0.00000000
Si       2.55049274      -2.68913693       0.16856083       0.00000000
Si      -0.15421743      -2.54018117       2.88174037       0.00000000
Si       0.69755410       2.15651909      -3.12835724       0.00000000
Si       2.64384096       0.16565301       2.81885568       0.00000000
