10
Lattice="16.2900001489832 0.0 0.0 0.0 16.2900001489832 0.0 0.0 0.0 29.40185373716267" Properties=species:S:1:pos:R:3:initial_magmoms:R:1 pbc="T T T"
Si       1.02410344       1.74811250      -1.25069605       0.00000000
Si      -1.70189777      -1.02985381      -1.34707533       0.00000000
Si       1.76718809      -1.67961305      -0.14059966       0.00000000
Si      -0.64132102       0.40635405       2.33315470       0.00000000
H       -2.05657994       2.31319631       0.76844685       0.00000000
Si      -0.36082350      -2.40401306      -2.71229161       0.00000000
Si       2.36177309       0.48200481      -2.76036364       0.00000000
Si      -1.64942768      -1.67034404       3.02077585       0.00000000
Si       2.73577521      -1.85733695       1.95460583       0.00000000
Si       2.40344291       3.10721979       0.15624145       0.00000000
