10
Lattice="16.2900001489832 0.0 0.0 0.0 16.2900001489832 0.0 0.0 0.0 29.40185373716267" Properties=species:S:1:pos:R:3:initial_magmoms:R:1 pbc="T T T"
H        0.54998298      -1.39020490       0.19361121       0.00000000
Si       1.49558491       1.46741950       1.10903792       0.00000000
Si      -2.06182532      -0.24000057       1.16310793       0.00000000
Si       0.09876627       0.48254238      -2.34609152       0.00000000
H       -1.70230502      -1.97180678      -1.89030398       0.00000000
H       -0.12520494      -2.12473730       2.60059396       0.00000000
Si      -0.68470129      -1.69199345      -2.98593466       0.00000000
Si      -1.17672445      -1.17473707       3.14311697       0.00000000
Si       3.50945247       0.31969125       1.09845326       0.00000000
Si      -0.84119932       2.69379750      -2.48383920       0.00000000
