10
Lattice="16.2900001489832 0.0 0.0 0.0 16.2900001489832 0.0 0.0 0.0 29.40185373716267" Properties=species:S:1:pos:R:3:initial_magmoms:R:1 pbc="T T T"
Si       0.78861520       1.36790389      -1.67705234       0.00000000
Si       0.32123880      -2.20689754      -0.73739849       0.00000000
Si       1.95768335      -0.40171140       1.31976101       0.00000000
Si      -2.00055863       0.84654244       1.02436058       0.00000000
H        0.35585505      -3.03396724       0.52064803       0.00000000
H        1.75598057      -2.42123811      -1.26198637       0.00000000
Si       2.73942417       0.25350498      -2.21781123       0.00000000
Si      -1.12980925       2.76763845       2.14927551       0.00000000
Si       1.13161744      -1.47732382       3.24875783       0.00000000
Si       1.24497955       3.47850147      -0.69379554       0.00000000
