10
Lattice="16.2900001489832 0.0 0.0 0.0 16.2900001489832 0.0 0.0 0.0 29.40185373716267" Properties=species:S:1:pos:R:3:initial_magmoms:R:1 pbc="T T T"
Si      -0.07413579      -1.69078473      -1.59172816       0.00000000
Si       0.18380007      -0.86105683       2.15894872       0.00000000
Si      -1.72564859       1.61987761       0.04522005       0.00000000
Si       1.76186126       1.13893165      -1.11829951       0.00000000
H       -0.69569704       2.94500397       0.06042081       0.00000000
H        1.23559651       2.53430048      -1.39993986       0.00000000
Si       1.02517858       1.04454739       3.29100241       0.00000000
Si      -0.08891082      -0.60400063      -3.65547367       0.00000000
Si       2.25141129       2.51125013       1.79127854       0.00000000
Si      -2.78084964       1.69127669      -2.07656472       0.00000000
