10
Lattice="16.2900001489832 0.0 0.0 0.0 16.2900001489832 0.0 0.0 0.0 29.40185373716267" Properties=species:S:1:pos:R:3:initial_magmoms:R:1 pbc="T T T"
Si      -1.42039734      -1.28695888       1.34975678       0.00000000
Si      -1.26617991       1.25322229      -1.53198359       0.00000000
Si       1.37766105       1.41887530       1.28687210       0.00000000
Si       1.28431283      -1.43591464      -1.36342276       0.00000000
H        0.21912275      -2.55733454      -1.62198266       0.00000000
Si       0.48788658       1.99200638      -3.03044906       0.00000000
Si      -0.00358152      -2.65207718       2.66202914       0.00000000
Si       1.58931865      -0.18534762      -3.41208513       0.00000000
Si      -0.01821929       2.79283908       2.60550995       0.00000000
Si      -2.66855344       2.73331541      -0.22427734       0.00000000
