10
Lattice="16.2900001489832 0.0 0.0 0.0 16.2900001489832 0.0 0.0 0.0 29.40185373716267" Properties=species:S:1:pos:R:3:initial_magmoms:R:1 pbc="T T T"
Si       1.34235791       1.39225744       1.35180903       0.00000000
Si       1.39787423      -1.31641120      -1.38385705       0.00000000
Si      -1.30618108       1.36803421      -1.46162495       0.00000000
Si      -1.31084002      -1.39678606       1.43360499       0.00000000
Si      -2.65556324      -2.69234606      -0.02066950       0.00000000
Si      -2.70241328       0.10756287       2.67868529       0.00000000
Si      -2.66388743       2.75634948      -0.14198155       0.00000000
Si       2.75082717       0.07265340       2.68056701       0.00000000
Si       2.77187385      -2.67103874      -0.02066950       0.00000000
Si       0.06349148      -2.68754051      -2.78213571       0.00000000
