10
Lattice="16.2900001489832 0.0 0.0 0.0 16.2900001489832 0.0 0.0 0.0 29.40185373716267" Properties=species:S:1:pos:R:3:initial_magmoms:R:1 pbc="T T T"
Si      -1.31075857      -1.33509583      -1.42969454       0.00000000
Si      -1.42807915       1.30642543       1.34642849       0.00000000
Si       1.35277048       1.37249767      -1.37341939       0.00000000
Si       1.66257371      -0.98455132       1.37444846       0.00000000
Si       2.65113236       2.62767476       0.14706807       0.00000000
Si       3.27873720       0.77908555       1.62386438       0.00000000
Si      -0.06400341       2.62326017       2.75127846       0.00000000
Si      -2.62709647      -2.80259679      -0.21119352       0.00000000
Si       0.81735076      -1.03832461       3.61598698       0.00000000
Si      -0.00563634       2.76930003      -2.68347779       0.00000000
