10
Lattice="16.2900001489832 0.0 0.0 0.0 16.2900001489832 0.0 0.0 0.0 29.40185373716267" Properties=species:S:1:pos:R:3:initial_magmoms:R:1 pbc="T T T"
Si      -2.31997295      -0.11961747       0.22318947       0.00000000
Si       0.24223230       2.22798870       0.80222958       0.00000000
Si       1.05651239      -1.41773500       1.62989176       0.00000000
Si      -0.39164418      -0.00962739      -2.38443153       0.00000000
H       -1.08058087      -2.43700031      -0.74313185       0.00000000
H        2.88997635      -1.50245929      -0.42914946       0.00000000
Si      -2.72715780       0.47125341      -1.99841460       0.00000000
Si       2.53045604       0.22934691       2.62426246       0.00000000
H        0.84782935       2.84272557      -2.16232993       0.00000000
Si       1.44747891       3.37001333      -0.82139959       0.00000000
