10
Lattice="16.2900001489832 0.0 0.0 0.0 16.2900001489832 0.0 0.0 0.0 29.40185373716267" Properties=species:S:1:pos:R:3:initial_magmoms:R:1 pbc="T T T"
Si       0.34086825       2.29719953       0.48401332       0.00000000
Si      -2.30931929       0.21157452      -0.50694676       0.00000000
Si      -0.81854644      -1.12065427       1.93405394       0.00000000
Si       1.57302757      -1.53215596      -1.03582731       0.00000000
H        0.15776865       0.37468629      -2.60053516       0.00000000
Si      -1.60382545      -2.86179465       0.55322528       0.00000000
Si       3.34580313      -1.01323801       0.53852435       0.00000000
Si      -0.04891887       2.14856957       2.82972261       0.00000000
Si      -1.90187707       0.69457303       3.00028276       0.00000000
Si       0.56492092      -3.60885405      -0.34820615       0.00000000
