10
Lattice="16.2900001489832 0.0 0.0 0.0 16.2900001489832 0.0 0.0 0.0 29.40185373716267" Properties=species:S:1:pos:R:3:initial_magmoms:R:1 pbc="T T T"
Si       0.98995960       2.06363351       0.41921163       0.00000000
Si       0.41721948      -0.43043067      -2.33759438       0.00000000
Si       1.69545344      -1.00973566       1.47938367       0.00000000
Si      -2.21187251       0.83349415       0.72640220       0.00000000
H       -0.57274012       2.84192085      -2.09755765       0.00000000
Si      -0.23724756       2.98041843       2.26717694       0.00000000
Si       0.63669466       3.45325197      -1.38335722       0.00000000
Si       2.48073245       0.73140472       2.86021233       0.00000000
Si       3.29927889       1.85205899       0.92615839       0.00000000
Si      -1.99084979       1.56796138       2.98146558       0.00000000
