10
Lattice="16.2900001489832 0.0 0.0 0.0 16.2900001489832 0.0 0.0 0.0 29.40185373716267" Properties=species:S:1:pos:R:3:initial_magmoms:R:1 pbc="T T T"
Si      -1.57529188      -1.09517671       1.34254745       0.00000000
Si      -1.32366025       1.49667634      -1.22305831       0.00000000
Si       1.44780634       1.48475206       1.20353548       0.00000000
Si       0.95967649      -2.01917810      -0.87532259       0.00000000
H        1.06477957       1.20427084      -2.66795361       0.00000000
Si      -0.14094108      -2.35265069       2.73416658       0.00000000
Si       2.83081286      -1.24554970      -2.11884459       0.00000000
Si       1.16475130      -3.47178999       1.14117415       0.00000000
Si       2.71398625       0.23152977       2.73551907       0.00000000
Si      -0.46618722      -2.76395691      -2.66080896       0.00000000
