10
Lattice="16.2900001489832 0.0 0.0 0.0 16.2900001489832 0.0 0.0 0.0 29.40185373716267" Properties=species:S:1:pos:R:3:initial_magmoms:R:1 pbc="T T T"
Si       1.85295820       1.45399654      -0.17056015       0.00000000
Si       1.08333062      -1.81522730      -1.06622882       0.00000000
Si      -1.63464939       0.43378641      -1.65926421       0.00000000
Si      -1.23183026      -0.73355500       1.92244021       0.00000000
H       -2.27922840       0.36973413       2.03569615       0.00000000
H        0.76194521      -2.23104584       2.02749303       0.00000000
Si       1.71856569      -2.78806611       0.98816690       0.00000000
H       -0.20174302       3.35459973       1.08745696       0.00000000
Si      -0.40744223      -0.48299850      -3.50722952       0.00000000
Si       1.90187707      -0.69457303      -3.00028276       0.00000000
