10
Lattice="16.28999089631971 0.0 0.0 0.0 16.28999089631971 0.0 0.0 0.0 34.25627252547053" Properties=species:S:1:pos:R:3:initial_magmoms:R:1 pbc="T T T"
Si       1.37420811      -1.27521608       1.36927194       0.00000000
Si      -1.19798289      -1.49737910      -1.39002581       0.00000000
Si      -1.35539316       1.44784380       1.34321660       0.00000000
Si       1.00554912       1.58352321      -1.61173253       0.00000000
Si      -1.42109073       0.35417881      -2.81652631       0.00000000
Si       2.06928612      -0.25851253      -2.69508775       0.00000000
Si       2.57803911       2.69788953      -0.04200164       0.00000000
Si      -0.01402569      -2.61042593       2.71937405       0.00000000
Si      -2.74822074      -2.63315048      -0.04592398       0.00000000
Si       2.73548196      -2.66893961      -0.03176243       0.00000000
