10
Lattice="16.28999089631971 0.0 0.0 0.0 16.28999089631971 0.0 0.0 0.0 34.25627252547053" Properties=species:S:1:pos:R:3:initial_magmoms:R:1 pbc="T T T"
Si       1.33638273       1.35861695      -1.38727704       0.00000000
Si      -1.32792822       1.21197437       1.53533274       0.00000000
Si      -1.37490858      -1.35774913      -1.38176178       0.00000000
Si       1.42306182      -1.24467313       1.61107340       0.00000000
Si      -0.33011685      -2.36249865       2.77671223       0.00000000
Si      -1.95093927      -0.65919603       3.02931813       0.00000000
Si       2.67980274      -2.69559657       0.00318584       0.00000000
Si       2.68087788       2.69978894      -0.02038249       0.00000000
Si       2.69270442       0.00215680      -2.74173656       0.00000000
Si      -2.73569373       2.70117359       0.01493574       0.00000000
