10
Lattice="16.28999089631971 0.0 0.0 0.0 16.28999089631971 0.0 0.0 0.0 34.25627252547053" Properties=species:S:1:pos:R:3:initial_magmoms:R:1 pbc="T T T"
Si      -1.61184663      -1.58678807       0.54827195       0.00000000
Si      -1.51749495       1.61674536      -0.78008427       0.00000000
Si       1.48968792       0.18788756       1.92102432       0.00000000
Si       1.76994108       1.16292551      -2.35388683       0.00000000
Si       0.35986239       3.16701579      -1.09308401       0.00000000
Si      -1.59594759      -1.16686445      -2.75468544       0.00000000
Si       3.41699040      -0.77781038       0.94139715       0.00000000
Si      -0.76895316      -3.18107408       2.12365029       0.00000000
Si       1.74687444       2.39799747       2.55274460       0.00000000
Si       0.15723108      -0.04903893      -3.92032427       0.00000000
