10
Lattice="16.28999089631971 0.0 0.0 0.0 16.28999089631971 0.0 0.0 0.0 34.25627252547053" Properties=species:S:1:pos:R:3:initial_magmoms:R:1 pbc="T T T"
Si      -1.36278882       1.31934339      -1.33328913       0.00000000
Si       1.32569649      -1.35695700      -1.35753573       0.00000000
Si      -1.36140417      -1.34921925       1.34973900       0.00000000
Si       1.35392706       1.36611198       1.34730680       0.00000000
Si       0.10337634       2.49230484      -2.75668056       0.00000000
Si      -0.18109593      -2.31614478      -2.91689724       0.00000000
Si      -0.00304623      -2.70829395       2.70769266       0.00000000
Si      -2.71503801      -2.70104490      -0.01864913       0.00000000
Si       2.71246419       0.00739566       2.70632241       0.00000000
Si      -2.71736748       0.00814500       2.70687051       0.00000000
