10
Lattice="16.28999089631971 0.0 0.0 0.0 16.28999089631971 0.0 0.0 0.0 34.25627252547053" Properties=species:S:1:pos:R:3:initial_magmoms:R:1 pbc="T T T"
Si       1.38121281      -1.17519318      -1.49070707       0.00000000
Si       1.35363384       1.35182565       1.36838812       0.00000000
Si      -1.36081773      -1.36516716       1.36725767       0.00000000
Si      -1.38344454       1.20539484      -1.51071274       0.00000000
Si      -2.06389413      -0.67225572      -2.99002072       0.00000000
Si      -0.10503792      -2.30166297      -2.96264994       0.00000000
Si      -2.72500749       2.67890679      -0.00725891       0.00000000
Si       2.70503595      -2.71099809      -0.01558319       0.00000000
Si       2.71503801       2.70104490       0.01864913       0.00000000
Si      -2.69689095      -2.72772792      -0.01042762       0.00000000
