10
Lattice="16.28999089631971 0.0 0.0 0.0 16.28999089631971 0.0 0.0 0.0 34.25627252547053" Properties=species:S:1:pos:R:3:initial_magmoms:R:1 pbc="T T T"
Si      -1.71689337       1.55793650       0.27127557       0.00000000
Si       1.91327516       1.04664227       0.97846246       0.00000000
Si       0.60121340       0.21633283      -2.30537992       0.00000000
Si      -0.96774247      -2.05447592       0.78025556       0.00000000
Si       3.45787667      -0.21183027      -0.27531782       0.00000000
Si      -1.68735960       0.28334826      -3.20539547       0.00000000
Si      -1.25534880       3.18327125      -1.37343750       0.00000000
Si      -3.67441380       0.36101246      -0.07899501       0.00000000
Si       1.40973497       0.96867833       3.27490148       0.00000000
Si      -3.04946424      -1.16262284       1.75169547       0.00000000
