10
Lattice="16.28999089631971 0.0 0.0 0.0 16.28999089631971 0.0 0.0 0.0 34.25627252547053" Properties=species:S:1:pos:R:3:initial_magmoms:R:1 pbc="T T T"
Si      -2.26385388       0.71625501      -0.19642558       0.00000000
Si      -0.03925890      -1.91013282       1.47839878       0.00000000
Si       0.98316666      -0.53525682      -2.14598539       0.00000000
Si       1.39147551       1.84665069       0.77703546       0.00000000
Si       0.20624769       1.21336065      -3.51483255       0.00000000
Si       1.55574387      -3.36471579       0.56053570       0.00000000
Si      -3.35471373      -1.16453952      -1.31054295       0.00000000
Si      -3.01610979       1.17089262       2.04431272       0.00000000
Si       0.89570565       2.25965106       3.01708863       0.00000000
Si      -2.46374847       2.75222808      -1.50340587       0.00000000
