10
Lattice="16.28999089631971 0.0 0.0 0.0 16.28999089631971 0.0 0.0 0.0 34.25627252547053" Properties=species:S:1:pos:R:3:initial_magmoms:R:1 pbc="T T T"
Si       1.35705474      -1.35715248       1.35733704       0.00000000
Si      -1.35692442       1.35730979       1.35781663       0.00000000
Si      -1.35803214      -1.35796698      -1.35709725       0.00000000
Si       1.35972630       1.35764909      -1.35826196       0.00000000
Si       2.71375110      -0.00078192      -2.71207061       0.00000000
Si       0.00048870      -2.71565703       2.71357789       0.00000000
Si      -2.71564889       0.00081450       2.71419450       0.00000000
Si       2.71502172      -2.71503801       0.00013703       0.00000000
Si       2.71495656       2.71514294       0.00000000       0.00000000
Si       2.71472850      -0.00061902       2.71556475       0.00000000
