10
Lattice="16.28999089631971 0.0 0.0 0.0 16.28999089631971 0.0 0.0 0.0 34.25627252547053" Properties=species:S:1:pos:R:3:initial_magmoms:R:1 pbc="T T T"
Si       0.77691897      -1.74861747       1.36884716       0.00000000
Si       1.74237840      -0.02586852      -1.63710818       0.00000000
Si      -0.42733557       2.05822521       1.18965250       0.00000000
Si      -2.05302870      -0.08361657      -1.27724583       0.00000000
Si      -1.41335298       1.86885396      -2.59953869       0.00000000
Si       0.72736479       3.55698733      -0.25860075       0.00000000
Si      -2.66999616       1.53886743       2.01142668       0.00000000
Si       0.89948493       1.56841749      -3.21248652       0.00000000
Si      -0.20624769      -1.21336065       3.51483255       0.00000000
Si       3.73923918       0.03746700      -0.22674239       0.00000000
