10
Lattice="16.28999089631971 0.0 0.0 0.0 16.28999089631971 0.0 0.0 0.0 34.25627252547053" Properties=species:S:1:pos:R:3:initial_magmoms:R:1 pbc="T T T"
Si       1.47395178       1.10372895      -1.49285493       0.00000000
Si       1.63817127      -1.02949542       1.38361162       0.00000000
Si      -1.01019177       1.67154948       1.38292649       0.00000000
Si      -0.73280565      -2.35677204      -0.54005044       0.00000000
Si       2.29571712      -1.07610111      -2.06037892       0.00000000
Si      -2.64660372      -1.58162868      -1.66413639       0.00000000
Si       0.17200611      -2.20245687       2.80700306       0.00000000
Si       2.25707724       2.91041605       0.07786455       0.00000000
Si      -1.23329961       3.52310739      -0.04357400       0.00000000
Si      -2.56042962       0.53577810       2.72702832       0.00000000
