10
Lattice="16.28999089631971 0.0 0.0 0.0 16.28999089631971 0.0 0.0 0.0 34.25627252547053" Properties=species:S:1:pos:R:3:initial_magmoms:R:1 pbc="T T T"
Si      -0.25718652      -2.21010991      -0.63172027       0.00000000
Si       2.23138791       0.68108490       0.26740461       0.00000000
Si      -1.17468819       0.07907166       2.04561446       0.00000000
Si      -1.13660217       1.64673981      -1.26402291       0.00000000
Si       0.06128298       1.87792749       2.86320937       0.00000000
Si       2.08445211       0.77700042       2.62334682       0.00000000
Si       0.34195968       3.48684192      -0.85541386       0.00000000
Si      -0.20774637      -3.24653903       1.55732528       0.00000000
Si      -3.32605962       1.56590883      -0.35736163       0.00000000
Si      -3.41242920       0.27934092       1.60785331       0.00000000
