10
Lattice="16.28999089631971 0.0 0.0 0.0 16.28999089631971 0.0 0.0 0.0 34.25627252547053" Properties=species:S:1:pos:R:3:initial_magmoms:R:1 pbc="T T T"
Si      -1.76976189      -0.64960773       1.38463931       0.00000000
Si      -0.27883593      -0.16370310      -2.32785204       0.00000000
Si       1.44461349      -1.82658860       0.85277612       0.00000000
Si       0.57780630       2.36843568       0.48835769       0.00000000
Si       2.76934887       1.16927991       0.21766448       0.00000000
Si       0.03354111      -1.50065386       2.72948353       0.00000000
Si      -2.55288735      -2.45629484      -0.18608018       0.00000000
Si       0.35223867       1.95841638      -3.09002028       0.00000000
Si      -0.75305412       3.31995087      -1.43437944       0.00000000
Si       0.69346530      -2.16012635      -3.19076803       0.00000000
