10
Lattice="16.28999089631971 0.0 0.0 0.0 16.28999089631971 0.0 0.0 0.0 34.25627252547053" Properties=species:S:1:pos:R:3:initial_magmoms:R:1 pbc="T T T"
Si      -0.28359261       0.72690867       2.17839184       0.00000000
Si       2.02316913      -1.10092707      -0.23986255       0.00000000
Si       0.48858597       1.82501757      -1.35058856       0.00000000
Si      -1.23597117      -1.79885583      -0.81759491       0.00000000
Si       1.07566128      -1.10306106       2.88448253       0.00000000
Si      -0.06128298      -1.87792749      -2.86320937       0.00000000
Si      -2.55415797       0.24405678       2.36546545       0.00000000
Si      -0.65510235       3.44455308      -0.14017675       0.00000000
Si       2.17010493      -1.19684259      -2.59580476       0.00000000
Si       0.31964238       3.05496144       2.07236862       0.00000000
