10
Lattice="16.28999089631971 0.0 0.0 0.0 16.28999089631971 0.0 0.0 0.0 34.25627252547053" Properties=species:S:1:pos:R:3:initial_magmoms:R:1 pbc="T T T"
Si      -0.20279421       0.91882116       2.18421541       0.00000000
Si      -1.82775918      -1.13082085      -1.03395765       0.00000000
Si       1.84164966      -1.49981053      -0.47698461       0.00000000
Si       0.28720899       1.93842855      -1.60048820       0.00000000
Si       2.07337491       1.23473313       1.62419356       0.00000000
Si      -1.71402240       0.89852382      -2.23977912       0.00000000
Si       3.33830970      -0.68788109       1.08897326       0.00000000
Si      -0.90955052      -3.19406894      -1.76437030       0.00000000
Si      -0.77952211      -0.91443589       3.72480105       0.00000000
Si       3.24231273      -0.81662096      -2.21881427       0.00000000
