10
Lattice="16.28999089631971 0.0 0.0 0.0 16.28999089631971 0.0 0.0 0.0 34.25627252547053" Properties=species:S:1:pos:R:3:initial_magmoms:R:1 pbc="T T T"
Si      -0.02252907       0.17738181       2.32466621       0.00000000
Si       1.17156051       1.54870659      -1.30670625       0.00000000
Si      -1.55714481      -1.19601180      -1.30458236       0.00000000
Si      -0.13714551      -2.49469947      -2.67195649       0.00000000
Si       2.55397878       0.21778101      -2.69096874       0.00000000
Si      -2.58330078      -2.72372058       0.18758745       0.00000000
Si       2.89999467       2.53329048       0.03973730       0.00000000
Si      -2.86705629       0.23543937      -2.67593022       0.00000000
Si      -0.15956055       2.95845948      -2.66130279       0.00000000
Si      -1.92992517      -0.62051868       3.56005086       0.00000000
