10
Lattice="16.28999089631971 0.0 0.0 0.0 16.28999089631971 0.0 0.0 0.0 34.25627252547053" Properties=species:S:1:pos:R:3:initial_magmoms:R:1 pbc="T T T"
Si      -1.35848826      -1.35550719      -1.35733704       0.00000000
Si       1.35692442       1.35894438      -1.35730279       0.00000000
Si       1.35984033      -1.35643572       1.35726853       0.00000000
Si      -1.35860229       1.35913986       1.36261251       0.00000000
Si       2.69808012      -0.00635310       2.71559901       0.00000000
Si       2.71357191      -2.71396287      -0.00030831       0.00000000
Si      -0.00107514      -2.71342530      -2.71440004       0.00000000
Si      -2.71549413      -2.71261080       0.00044533       0.00000000
Si       2.71448415       0.00162900      -2.71433153       0.00000000
Si      -2.71555929       0.00153126      -2.71453706       0.00000000
