10
Lattice="16.28999089631971 0.0 0.0 0.0 16.28999089631971 0.0 0.0 0.0 34.25627252547053" Properties=species:S:1:pos:R:3:initial_magmoms:R:1 pbc="T T T"
Si      -0.13458798       1.98403470       1.37008039       0.00000000
Si       0.17332560      -1.24007625       2.08840057       0.00000000
Si      -2.36208258       0.13497894      -0.66477760       0.00000000
Si       0.84636324      -0.90113022      -2.21830042       0.00000000
Si       2.32927452       0.92922234      -0.66905963       0.00000000
Si      -0.44168706      -2.83446000      -1.93757011       0.00000000
Si       2.43436131      -0.76606983       2.50255913       0.00000000
Si      -2.67330303      -2.13421806      -1.24083140       0.00000000
Si      -3.41941761       1.43441825       1.09013797       0.00000000
Si      -0.48422025       0.20571012      -3.83345032       0.00000000
