10
Lattice="16.28999089631971 0.0 0.0 0.0 16.28999089631971 0.0 0.0 0.0 34.25627252547053" Properties=species:S:1:pos:R:3:initial_magmoms:R:1 pbc="T T T"
Si      -1.04602814      -1.56058200      -1.38398985       0.00000000
Si       1.26671692      -1.35646830       1.42534949       0.00000000
Si      -1.46549794       1.36047564       1.42289674       0.00000000
Si       1.89971374       0.69900390      -1.55424362       0.00000000
Si      -1.40944713       0.01532889      -3.21098065       0.00000000
Si       2.58016333       2.57665446      -0.07493564       0.00000000
Si       2.60279014       0.00609246       2.80303477       0.00000000
Si       2.92182979      -2.52630207       0.01800511       0.00000000
Si      -2.76065068      -2.71332756      -0.03925428       0.00000000
Si      -0.10863964      -2.71161711       2.80495312       0.00000000
