10
Lattice="16.28999089631971 0.0 0.0 0.0 16.28999089631971 0.0 0.0 0.0 34.25627252547053" Properties=species:S:1:pos:R:3:initial_magmoms:R:1 pbc="T T T"
Si       1.35769929       1.35664749       1.35833048       0.00000000
Si      -1.35777596       1.35578412      -1.36004329       0.00000000
Si      -1.35795515      -1.35835794       1.35812494       0.00000000
Si       1.35916702      -1.36272366      -1.35521315       0.00000000
Si       2.71336287      -2.71450044       0.00226092       0.00000000
Si       2.71344432       2.71476108       0.00147302       0.00000000
Si       2.71368867       0.00009774       2.71556475       0.00000000
Si      -0.00112483       2.71458189       2.71580455       0.00000000
Si      -0.00062337      -2.71534752       2.71573603       0.00000000
Si      -2.71605245       0.00017919       2.71549624       0.00000000
