10
Lattice="16.28999089631971 0.0 0.0 0.0 16.28999089631971 0.0 0.0 0.0 34.25627252547053" Properties=species:S:1:pos:R:3:initial_magmoms:R:1 pbc="T T T"
Si      -1.56020733      -1.23400448      -1.27829846       0.00000000
Si      -1.37010303       1.33709786       1.41837491       0.00000000
Si       1.32095610      -1.38116803       1.43268033       0.00000000
Si       1.71885564       0.95162759      -1.42417248       0.00000000
Si      -0.14913495      -1.55993922      -3.15500587       0.00000000
Si       3.36784347      -1.01409485      -1.18627003       0.00000000
Si      -2.85475734       2.57344370       0.02994342       0.00000000
Si       2.59234173      -2.84844564       0.15517415       0.00000000
Si       2.76490170       2.68918415      -0.05439557       0.00000000
Si      -0.01643661       2.69638433       2.78570108       0.00000000
