10
Lattice="16.28999089631971 0.0 0.0 0.0 16.28999089631971 0.0 0.0 0.0 34.25627252547053" Properties=species:S:1:pos:R:3:initial_magmoms:R:1 pbc="T T T"
Si       0.29963826       0.86081247      -2.25821452       0.00000000
Si       1.95584256       0.73979406       1.29176982       0.00000000
Si      -0.76106880      -2.02973400       1.16421652       0.00000000
Si      -1.77997572       1.83860343       0.01887522       0.00000000
Si      -0.29036925      -1.49076306      -2.26270210       0.00000000
Si      -2.00104731      -0.60012360       2.63671636       0.00000000
Si       0.71755821       2.13522804       2.66500863       0.00000000
Si      -3.38085918       0.77125005       1.29397250       0.00000000
Si       3.00806253       2.27276451      -0.08807845       0.00000000
Si      -0.66130884       3.46455720       1.34722733       0.00000000
