10
Lattice="16.28999089631971 0.0 0.0 0.0 16.28999089631971 0.0 0.0 0.0 34.25627252547053" Properties=species:S:1:pos:R:3:initial_magmoms:R:1 pbc="T T T"
Si      -1.24861221       1.37324700      -1.43544139       0.00000000
Si       0.99878877       1.78709445       1.28618673       0.00000000
Si      -1.29881962      -1.39569462       1.50491315       0.00000000
Si       1.48595751      -1.35273789      -1.39721137       0.00000000
Si      -2.50136680      -2.72754873      -0.06738213       0.00000000
Si      -2.59749186       2.69684208       0.00359691       0.00000000
Si      -2.58587902       0.02407662      -2.79541617       0.00000000
Si       0.12966840      -2.69459406      -2.79860200       0.00000000
Si      -0.83103435       3.55587894       1.34990343       0.00000000
Si       0.13123224       2.73380409      -2.79106562       0.00000000
