10
Lattice="16.28999089631971 0.0 0.0 0.0 16.28999089631971 0.0 0.0 0.0 34.25627252547053" Properties=species:S:1:pos:R:3:initial_magmoms:R:1 pbc="T T T"
Si       1.78225632       0.57715470       1.38991478       0.00000000
Si      -2.09952036      -0.10674837       1.22157936       0.00000000
Si       0.54156105       1.06313427      -2.21984196       0.00000000
Si      -0.59018670      -2.40106455       0.55789797       0.00000000
Si      -0.79920369      -2.70378162      -2.49084348       0.00000000
Si       3.74769599      -0.31400604       0.23989681       0.00000000
Si      -0.14186961      -0.74433897      -3.69347911       0.00000000
Si       1.40706504       2.83748994       2.04801240       0.00000000
Si       1.61718975      -0.40843917       3.52911742       0.00000000
Si      -1.07904960       2.96800542      -2.36488310       0.00000000
