10
Lattice="16.28999089631971 0.0 0.0 0.0 16.28999089631971 0.0 0.0 0.0 34.25627252547053" Properties=species:S:1:pos:R:3:initial_magmoms:R:1 pbc="T T T"
Si       2.10341367      -1.08641268       0.72685000       0.00000000
Si       0.59018670       2.40106455      -0.55789797       0.00000000
Si      -0.69988356      -2.58875793       0.35373047       0.00000000
Si      -1.50933366       2.29431618       0.66368139       0.00000000
Si      -0.20901699      -0.30271707      -3.04874145       0.00000000
Si      -1.16335035      -0.04740390       3.10026291       0.00000000
Si      -3.43297089      -1.17260307       0.41844060       0.00000000
Si       1.35938421      -3.22585983       1.43982620       0.00000000
Si       1.43128827      -2.06075016      -2.86615541       0.00000000
Si       2.37244302       2.97821925       0.83201681       0.00000000
