10
Lattice="16.28999089631971 0.0 0.0 0.0 16.28999089631971 0.0 0.0 0.0 34.25627252547053" Properties=species:S:1:pos:R:3:initial_magmoms:R:1 pbc="T T T"
Si       0.08762391       1.71786195      -1.45990038       0.00000000
Si       1.81708501      -1.38647448      -0.44560584       0.00000000
Si      -1.88719650       0.08374689       1.43228981       0.00000000
Si      -1.74493593      -0.22059918      -1.80212074       0.00000000
Si      -3.22776576       0.92690100      -0.44968234       0.00000000
Si      -1.63064529      -2.61327438      -1.49775358       0.00000000
Si      -1.01191851       1.66040712       2.94665770       0.00000000
Si       0.65379915      -3.25638729      -1.22973236       0.00000000
Si       2.61609322      -1.70297289       1.72285168       0.00000000
Si       3.10738985      -0.05413167      -1.93243167       0.00000000
