10
Lattice="16.28999089631971 0.0 0.0 0.0 16.28999089631971 0.0 0.0 0.0 34.25627252547053" Properties=species:S:1:pos:R:3:initial_magmoms:R:1 pbc="T T T"
Si      -1.87579350       0.09822870       1.47761088       0.00000000
Si       0.35741889       2.20682259      -0.89621310       0.00000000
Si       1.85302008      -0.54654579       1.46144192       0.00000000
Si      -0.46551933      -1.36287027      -1.95209478       0.00000000
Si      -1.58708583       1.86896799       2.96649209       0.00000000
Si       2.24461539       2.12307570      -2.32850291       0.00000000
Si      -3.70918413       1.08012474       0.41463815       0.00000000
Si       0.61397010      -0.49019868      -3.82625650       0.00000000
Si       0.73233324      -3.43847691      -1.76402774       0.00000000
Si       2.34025398       1.20200652       3.03757389       0.00000000
