10
Lattice="16.28999089631971 0.0 0.0 0.0 16.28999089631971 0.0 0.0 0.0 34.25627252547053" Properties=species:S:1:pos:R:3:initial_magmoms:R:1 pbc="T T T"
Si      -1.35278676       1.35568638       1.35613807       0.00000000
Si       1.35785584       1.35664749      -1.35689171       0.00000000
Si      -1.35663120      -1.35817875      -1.35699448       0.00000000
Si       1.35863550      -1.35943308       1.36000904       0.00000000
Si       0.01627371       2.68969077       2.72734892       0.00000000
Si      -2.71402803       2.71336014       0.00061661       0.00000000
Si      -2.71412577      -0.00063531      -2.71402322       0.00000000
Si       0.00034209       2.71427238      -2.71402322       0.00000000
Si       0.00035838      -2.71546155      -2.71350938       0.00000000
Si       2.71534005      -0.00078192      -2.71412599       0.00000000
