10
Lattice="16.28999089631971 0.0 0.0 0.0 16.28999089631971 0.0 0.0 0.0 34.25627252547053" Properties=species:S:1:pos:R:3:initial_magmoms:R:1 pbc="T T T"
Si       1.35545832      -1.27141821      -1.41903263       0.00000000
Si      -1.04532930      -1.65421692       1.30023181       0.00000000
Si       2.01241773       0.81419768       1.06989250       0.00000000
Si      -1.37327958       1.47448676      -1.39714286       0.00000000
Si      -1.77103251       0.03060891       2.82823370       0.00000000
Si      -0.01360215      -2.60542260      -2.79024347       0.00000000
Si       2.68028168      -2.72458395       0.14582903       0.00000000
Si      -2.77376346      -2.63880081      -0.04621174       0.00000000
Si       2.69651628       0.10928670      -2.78551610       0.00000000
Si       0.57528135      -3.55908807       1.44527295       0.00000000
