10
Lattice="16.28999089631971 0.0 0.0 0.0 16.28999089631971 0.0 0.0 0.0 34.25627252547053" Properties=species:S:1:pos:R:3:initial_magmoms:R:1 pbc="T T T"
Si      -0.08762391      -1.71786195       1.45990038       0.00000000
Si      -0.86236002       2.01152178       0.83982725       0.00000000
Si       1.44485362      -0.53572923      -1.76680250       0.00000000
Si      -1.83255984      -1.93846113      -0.34222035       0.00000000
Si      -3.12339573       1.53751536       0.42566868       0.00000000
Si       3.01976594      -1.77199362      -0.47253129       0.00000000
Si      -3.31538967      -0.79096095       1.01021804       0.00000000
Si       1.72946110      -3.10433643       1.01429454       0.00000000
Si      -0.02816541      -1.54046385      -3.37075059       0.00000000
Si      -0.48003372       1.89710082       3.18055966       0.00000000
