10
Lattice="16.28999089631971 0.0 0.0 0.0 16.28999089631971 0.0 0.0 0.0 34.25627252547053" Properties=species:S:1:pos:R:3:initial_magmoms:R:1 pbc="T T T"
Si       0.78927005      -2.19211272      -0.33084726       0.00000000
Si       1.94372606       1.10646567       0.88915631       0.00000000
Si      -1.47962770       0.36968526       1.87707350       0.00000000
Si      -1.12637531       1.00738989      -2.02574581       0.00000000
Si       2.88297488       0.71785143      -1.33226144       0.00000000
Si      -3.36427989       0.05453892       0.54231135       0.00000000
Si       2.46176435      -1.60098120      -1.87488110       0.00000000
Si      -1.21196134      -3.23201745      -0.97013818       0.00000000
Si      -3.03644364       1.87686864      -0.97411191       0.00000000
Si      -0.99637133       2.85498540       2.18257111       0.00000000
