10
Lattice="16.28999089631971 0.0 0.0 0.0 16.28999089631971 0.0 0.0 0.0 34.25627252547053" Properties=species:S:1:pos:R:3:initial_magmoms:R:1 pbc="T T T"
Si      -1.44485362       0.53572923       1.76680250       0.00000000
Si       1.29071697       1.81517841      -0.74976746       0.00000000
Si       1.57491231      -1.23626439       1.29427121       0.00000000
Si      -1.47301903      -1.00473462      -1.60394809       0.00000000
Si       2.66577216       0.64453014       2.40838859       0.00000000
Si      -0.33057867       3.35069010      -1.53642894       0.00000000
Si      -0.57780208      -3.15157743      -1.86429591       0.00000000
Si      -1.53247753      -1.18213272       3.22670288       0.00000000
Si       0.28460748      -2.56860720       2.78109704       0.00000000
Si       2.46587757       2.68050321       1.10140829       0.00000000
