10
Lattice="16.28999089631971 0.0 0.0 0.0 16.28999089631971 0.0 0.0 0.0 34.25627252547053" Properties=species:S:1:pos:R:3:initial_magmoms:R:1 pbc="T T T"
Si       1.55023785       1.13577138      -1.34410182       0.00000000
Si      -1.34801379       1.38981191       1.37547575       0.00000000
Si       1.38691431      -1.32667389       1.40496014       0.00000000
Si      -0.94328874      -2.00389806      -1.03443587       0.00000000
Si       2.56042962      -0.53577810      -2.72702832       0.00000000
Si       2.74822074       2.63315048       0.04592398       0.00000000
Si       0.02259423      -2.69066817       2.75827550       0.00000000
Si      -2.69394083       0.02388114       2.76029662       0.00000000
Si       2.73243573      -2.73823497       0.07997474       0.00000000
Si       2.73419505       0.02272455       2.76529804       0.00000000
