10
Lattice="16.28999089631971 0.0 0.0 0.0 16.28999089631971 0.0 0.0 0.0 34.25627252547053" Properties=species:S:1:pos:R:3:initial_magmoms:R:1 pbc="T T T"
Si      -1.35785584      -1.35664749       1.35689171       0.00000000
Si       1.35748421      -1.35742941      -1.35723428       0.00000000
Si      -1.35751375       1.35762489      -1.35713151       0.00000000
Si       1.35729524       1.35847197       1.35672043       0.00000000
Si      -2.71064260      -0.00096111       2.71302979       0.00000000
Si      -2.71471510      -0.00016290      -2.71374917       0.00000000
Si      -2.71430785       2.71453699      -0.00020554       0.00000000
Si      -0.00065440       2.71459139      -2.71470835       0.00000000
Si      -2.71448704      -2.71482624      -0.00010277       0.00000000
Si       2.71491199      -0.00030951      -2.71457132       0.00000000
