10
Lattice="16.290000149 0.0 0.0 0.0 16.290000149 0.0 0.0 0.0 29.1751946751" Properties=species:S:1:pos:R:3:initial_magmoms:R:1 pbc="T T T"
Si      -1.33380892      -1.36369619       1.37032972       0.00000000
Si       1.34618932      -1.35154385      -1.37461847       0.00000000
Si       1.36119241       1.34537482       1.36784983       0.00000000
Si      -1.36886500       1.34293132      -1.36577839       0.00000000
Si      -2.69612534      -2.70607853      -0.00694370       0.00000000
Si       2.71500545       2.69286734      -0.00551411       0.00000000
Si      -0.00772146       2.73351089       2.67872050       0.00000000
Si       2.72336222      -2.69591357      -0.03716920       0.00000000
Si      -2.75810880      -0.00081450       2.66868423       0.00000000
Si      -0.01821222       2.70782156      -2.72119958       0.00000000
