10
Lattice="16.290000149 0.0 0.0 0.0 16.290000149 0.0 0.0 0.0 29.1751946751" Properties=species:S:1:pos:R:3:initial_magmoms:R:1 pbc="T T T"
Si      -1.36122499       1.37083609       1.26179799       0.00000000
Si      -1.42058575      -1.31046535      -1.31305881       0.00000000
Si       1.33683886       1.44779005      -1.25625471       0.00000000
Si       1.29757996      -1.30235293       1.46091870       0.00000000
Si      -2.77606038       0.04483008       2.50083934       0.00000000
Si       2.68092677       0.08156403      -2.60610344       0.00000000
Si      -0.04263093      -2.65952171      -2.63303214       0.00000000
Si       2.68084532      -2.64668519       0.12551169       0.00000000
Si      -0.05189994       2.78923899      -2.60333180       0.00000000
Si      -2.78435199       0.08268804      -2.61730671       0.00000000
