10
Lattice="16.290000149 0.0 0.0 0.0 16.290000149 0.0 0.0 0.0 29.1751946751" Properties=species:S:1:pos:R:3:initial_magmoms:R:1 pbc="T T T"
Si      -1.36730116      -1.35796699      -1.32986372       0.00000000
Si      -1.43638705       1.33551937       1.28201640       0.00000000
Si       1.35353611       1.35156502      -1.36137293       0.00000000
Si       1.36370107      -1.32496345       1.38106619       0.00000000
Si      -0.08643474       2.67884165       2.59452089       0.00000000
Si      -0.09259236      -2.62314614       2.68420544       0.00000000
Si       0.00255753      -2.71554302      -2.66343270       0.00000000
Si      -2.71132391       0.02399517      -2.67361484       0.00000000
Si       2.73124658      -0.01562211      -2.67308969       0.00000000
Si       2.72979677       2.69138495      -0.02739551       0.00000000
