10
Lattice="16.290000149 0.0 0.0 0.0 16.290000149 0.0 0.0 0.0 29.1751946751" Properties=species:S:1:pos:R:3:initial_magmoms:R:1 pbc="T T T"
Si       1.12974409      -0.06142959      -1.00549391       0.00000000
H        0.66587005       0.92970289       1.62103217       0.00000000
H       -0.92434348       1.77399731       0.43946596       0.00000000
Si      -2.28017648       1.19545795       0.16664871       0.00000000
Si      -2.72966645      -1.01408509       0.77608935       0.00000000
Si       0.13258431       0.67150639       3.00688309       0.00000000
Si       1.35371530      -2.19616895      -1.91780225       0.00000000
Si       3.19111329       0.63350182      -0.10287174       0.00000000
Si       0.90285697       1.44971227      -2.84475653       0.00000000
Si      -1.66436561      -0.92431090       2.88233418       0.00000000
