10
Lattice="16.290000149 0.0 0.0 0.0 16.290000149 0.0 0.0 0.0 29.1751946751" Properties=species:S:1:pos:R:3:initial_magmoms:R:1 pbc="T T T"
Si      -1.39093795       1.43438338      -1.22293664       0.00000000
Si      -1.32778162      -1.38046348       1.37523115       0.00000000
Si       1.20078478      -1.46956978      -1.43180185       0.00000000
Si       1.30751686       1.43910748       1.37683287       0.00000000
H        3.24609204       1.73047043      -0.50686066       0.00000000
Si       0.01992267       2.66387114      -2.63656234       0.00000000
Si       2.67555107      -2.67794570       0.01870130       0.00000000
Si       2.53381178      -0.14037093      -2.83011058       0.00000000
Si      -2.89434207       0.15201828      -2.51320962       0.00000000
Si       2.73598697       0.07125246       2.70732386       0.00000000
