10
Lattice="16.290000149 0.0 0.0 0.0 16.290000149 0.0 0.0 0.0 29.1751946751" Properties=species:S:1:pos:R:3:initial_magmoms:R:1 pbc="T T T"
Si      -1.52005249       1.31808581       1.19659143       0.00000000
Si       1.41130045       1.28443067      -1.38188310       0.00000000
Si      -1.23066064      -1.43270877      -1.42669619       0.00000000
Si       0.98396488      -0.85960376       1.98703498       0.00000000
Si      -0.08024454       2.64749644       2.40779964       0.00000000
Si      -0.76414762      -1.18270125       3.47762485       0.00000000
Si       1.09952614      -3.16526432       1.75322497       0.00000000
Si      -2.68151321      -0.12353359       2.69756767       0.00000000
Si      -2.57380373      -2.81173873      -0.11384161       0.00000000
Si       0.06270021       2.61692011      -2.78917779       0.00000000
