10
Lattice="16.290000149 0.0 0.0 0.0 16.290000149 0.0 0.0 0.0 29.1751946751" Properties=species:S:1:pos:R:3:initial_magmoms:R:1 pbc="T T T"
Si       1.38326536      -1.34433226      -1.33540701       0.00000000
Si      -1.29757996       1.30235293      -1.46091870       0.00000000
Si       1.38790801       1.35936793       1.32992207       0.00000000
Si      -1.34928442      -1.39108456       1.34518070       0.00000000
Si      -2.77809663       0.05365926       2.46620838       0.00000000
Si      -2.65880495       2.67318902      -0.19912070       0.00000000
Si       2.71075376      -0.01462842       2.66413290       0.00000000
Si       0.01752804      -2.68512959      -2.70640776       0.00000000
Si      -2.70902702      -2.69923673      -0.04425877       0.00000000
Si       2.72741843       0.02712285      -2.69832623       0.00000000
