10
Lattice="16.290000149 0.0 0.0 0.0 16.290000149 0.0 0.0 0.0 29.1751946751" Properties=species:S:1:pos:R:3:initial_magmoms:R:1 pbc="T T T"
H       -0.16573446       1.38474612       0.62429082       0.00000000
Si       0.78986953      -1.24923287       1.73150696       0.00000000
Si       1.89721487       0.02475103      -1.34690204       0.00000000
Si      -1.93026728      -0.54346699      -1.25517523       0.00000000
Si       0.59867380       1.13492268      -2.90856268       0.00000000
Si      -2.67773393       1.64098783      -0.86133927       0.00000000
Si      -0.74371996       2.67872600      -1.76011032       0.00000000
Si       1.84008584       0.60542926       2.67493356       0.00000000
Si       2.29174238      -2.26851447      -0.98562560       0.00000000
Si      -1.05244804      -2.26010883       2.67227278       0.00000000
