10
Lattice="16.290000149 0.0 0.0 0.0 16.290000149 0.0 0.0 0.0 29.1751946751" Properties=species:S:1:pos:R:3:initial_magmoms:R:1 pbc="T T T"
Si      -2.19608750       0.72158185       0.46309787       0.00000000
Si      -0.27127737      -2.02945709       1.19670814       0.00000000
Si       1.57380949       1.31199661       1.20823234       0.00000000
Si      -0.28859364       0.88415605      -2.24202619       0.00000000
H        2.24352398      -0.95296501      -1.63524049       0.00000000
H        0.80563825      -1.86442310      -2.18659332       0.00000000
H        1.61181406      -2.60828966      -0.53075514       0.00000000
H        1.04096359      -2.48860703       1.80296868       0.00000000
Si      -2.15226740       2.86671911      -0.51762630       0.00000000
Si      -0.40415490       3.18981661      -2.00821618       0.00000000
