10
Lattice="16.290000149 0.0 0.0 0.0 16.290000149 0.0 0.0 0.0 29.1751946751" Properties=species:S:1:pos:R:3:initial_magmoms:R:1 pbc="T T T"
Si       1.36894645      -1.34754139      -1.33922896       0.00000000
Si       1.37803627       1.33503067       1.34576420       0.00000000
Si      -1.35065278      -1.36489024       1.35542119       0.00000000
Si      -1.34640109       1.35899326      -1.36846251       0.00000000
Si       0.00032580       2.70221780       2.65748096       0.00000000
Si      -0.01329264      -2.69790095      -2.66833413       0.00000000
Si      -2.72051147      -0.00731421       2.68899017       0.00000000
Si       2.74030383       0.00926901      -2.67746597       0.00000000
Si      -2.69079851       0.00011403      -2.73155678       0.00000000
Si       2.73458603       2.68983740      -0.01161173       0.00000000
