10
Lattice="16.290000149 0.0 0.0 0.0 16.290000149 0.0 0.0 0.0 29.1751946751" Properties=species:S:1:pos:R:3:initial_magmoms:R:1 pbc="T T T"
Si      -1.34265439      -1.32102127       1.40153551       0.00000000
Si      -1.31538493       1.48414933      -1.27666567       0.00000000
Si       1.34165907      -1.39393531      -1.36154799       0.00000000
Si       1.37283488       1.36355446       1.36877176       0.00000000
Si       2.63964791       0.10322973      -2.60895531       0.00000000
Si      -2.68055210      -2.62086554      -0.02517819       0.00000000
Si      -2.55699245       2.78831160       0.22019686       0.00000000
Si       0.02430468      -2.68364720       2.74759146       0.00000000
Si       2.72867276      -2.72816777       0.00874964       0.00000000
Si      -2.67752216       0.02207295       2.79412590       0.00000000
