10
Lattice="16.290000149 0.0 0.0 0.0 16.290000149 0.0 0.0 0.0 29.1751946751" Properties=species:S:1:pos:R:3:initial_magmoms:R:1 pbc="T T T"
Si       1.37626066       1.33981993       1.33397743       0.00000000
Si       1.37771047      -1.36718713      -1.31171675       0.00000000
Si      -1.35353611      -1.35156502       1.36137293       0.00000000
Si      -1.35148357       1.37603260      -1.34191308       0.00000000
Si      -0.05660775       2.66333357       2.61578960       0.00000000
Si      -0.00032580      -2.70221780      -2.65748096       0.00000000
Si       2.73426023      -0.01238040      -2.66909268       0.00000000
Si      -2.71635752       0.02093265      -2.68957367       0.00000000
Si       0.01016496      -2.67652847       2.74243912       0.00000000
Si       2.72502380       2.69746112      -0.01855542       0.00000000
