10
Lattice="16.290000149 0.0 0.0 0.0 16.290000149 0.0 0.0 0.0 29.1751946751" Properties=species:S:1:pos:R:3:initial_magmoms:R:1 pbc="T T T"
Si      -1.35723394       1.32299942       1.38878011       0.00000000
Si      -1.44130663      -1.34829073      -1.27970135       0.00000000
Si       1.33784884      -1.39574350       1.37266082       0.00000000
Si       1.35249355       1.35856630      -1.40012635       0.00000000
Si       0.02625948      -2.54516591      -2.62157505       0.00000000
Si       2.65408085       2.63518771       0.10945658       0.00000000
Si      -2.66536168       2.70689955       0.00174468       0.00000000
Si      -2.70811967      -0.08796600       2.69802573       0.00000000
Si      -0.03054375       2.61958678       2.83520749       0.00000000
Si       2.68539023      -0.08026083       2.77852009       0.00000000
