10
Lattice="16.290000149 0.0 0.0 0.0 16.290000149 0.0 0.0 0.0 29.1751946751" Properties=species:S:1:pos:R:3:initial_magmoms:R:1 pbc="T T T"
Si      -0.22397121       2.13473936       0.91230834       0.00000000
Si      -1.81397297      -0.75479716      -1.38579257       0.00000000
Si       0.34450092      -1.95089042       1.36936694       0.00000000
Si       2.12447666       0.58551148      -1.00193454       0.00000000
H        2.20938014      -0.23741046       1.57251382       0.00000000
H       -1.35371530       2.19616895       1.91780225       0.00000000
H        2.86039371      -0.66002194       1.61397177       0.00000000
H       -1.05072130      -1.11045673       2.99941424       0.00000000
Si       1.95365972      -2.74054818      -0.15296555       0.00000000
H        1.06298767      -1.87237262       2.69456263       0.00000000
