10
Lattice="16.290000149 0.0 0.0 0.0 16.290000149 0.0 0.0 0.0 29.1751946751" Properties=species:S:1:pos:R:3:initial_magmoms:R:1 pbc="T T T"
Si       1.35847198       1.36148563       1.33566959       0.00000000
Si       1.36533007      -1.34654770      -1.35028636       0.00000000
Si      -1.33058350       1.36378252      -1.37736094       0.00000000
Si      -1.35615880      -1.37670049       1.35550872       0.00000000
Si      -0.00623907      -2.69532713      -2.68595595       0.00000000
Si       2.69775434      -0.01102833       2.68633522       0.00000000
Si      -2.70788672       0.00074934      -2.68525574       0.00000000
Si      -2.71360451       2.68131773      -0.01940150       0.00000000
Si       0.01285281       2.71414208       2.69870551       0.00000000
Si       2.70005123       2.71542899      -0.04104950       0.00000000
