10
Lattice="16.290000149 0.0 0.0 0.0 16.290000149 0.0 0.0 0.0 29.1751946751" Properties=species:S:1:pos:R:3:initial_magmoms:R:1 pbc="T T T"
H       -1.13670644       0.96607846       0.29242298       0.00000000
H        1.51652245      -1.47370744      -0.63377275       0.00000000
Si       1.47853417       1.20285361      -1.38640525       0.00000000
Si       1.29761743       0.15195312       2.02038223       0.00000000
Si      -1.31786378      -1.70136020      -1.13366054       0.00000000
H       -2.30006168      -0.83277739       2.19875937       0.00000000
Si       2.13197495      -2.78057596      -0.20043359       0.00000000
Si       0.04577490       2.41588847      -2.76884268       0.00000000
Si      -2.60787753      -0.35434008      -2.63396575       0.00000000
Si       0.74929602       2.53863362       2.75618064       0.00000000
