10
Lattice="16.290000149 0.0 0.0 0.0 16.290000149 0.0 0.0 0.0 29.1751946751" Properties=species:S:1:pos:R:3:initial_magmoms:R:1 pbc="T T T"
Si      -1.42229620       1.34632453      -1.27501436       0.00000000
Si      -1.38088702      -1.34421823       1.33065145       0.00000000
Si       1.34964280       1.38824033       1.33631144       0.00000000
Si       1.35031069      -1.33419988      -1.39369905       0.00000000
Si      -0.07815942       2.67711491      -2.60591088       0.00000000
Si      -0.00871515      -2.69073335       2.67259371       0.00000000
Si       2.70132185      -2.67625154      -0.03019633       0.00000000
Si       2.71194293       0.03648960       2.68779398       0.00000000
Si      -2.73134433       0.03661992       2.67320639       0.00000000
Si      -0.06709851      -2.78956479      -2.62789439       0.00000000
