10
Lattice="16.290000149 0.0 0.0 0.0 16.290000149 0.0 0.0 0.0 29.1751946751" Properties=species:S:1:pos:R:3:initial_magmoms:R:1 pbc="T T T"
Si       1.91736560      -1.05916766       0.78005718       0.00000000
Si      -1.25713189      -1.31789033      -1.46891270       0.00000000
Si       1.16146072       1.44161940      -1.50097624       0.00000000
Si      -0.97057450       0.40417445       2.15169978       0.00000000
H       -1.87828589       1.97122360       0.65655858       0.00000000
Si       0.04883742       2.55697942       2.54553574       0.00000000
Si      -2.60354927      -2.60981767      -0.09966247       0.00000000
Si       3.66547809      -0.73607017      -0.71053269       0.00000000
Si       2.68151321       0.12353359      -2.69756767       0.00000000
Si       2.60126867       2.77103002      -0.28976803       0.00000000
