10
Lattice="16.290000149 0.0 0.0 0.0 16.290000149 0.0 0.0 0.0 29.1751946751" Properties=species:S:1:pos:R:3:initial_magmoms:R:1 pbc="T T T"
Si       1.36230013      -1.35175073       1.35148254       0.00000000
Si      -1.36145305       1.36385746       1.34389699       0.00000000
Si       1.34996860       1.38778747      -1.33453175       0.00000000
Si      -1.34964280      -1.38824033      -1.33631144       0.00000000
Si      -2.77193901      -0.04191580      -2.61132580       0.00000000
Si       0.00205254      -2.71602195       2.69228696       0.00000000
Si       2.79062364       0.05595615      -2.61669404       0.00000000
Si       0.00004887       2.70641411       2.70693291       0.00000000
Si      -2.72758133       0.01522952       2.69021553       0.00000000
Si      -0.02194263       2.72620646      -2.69996004       0.00000000
