10
Lattice="16.290000149 0.0 0.0 0.0 16.290000149 0.0 0.0 0.0 29.1751946751" Properties=species:S:1:pos:R:3:initial_magmoms:R:1 pbc="T T T"
Si      -0.73653607       1.32646213      -1.79024830       0.00000000
Si       1.99492229      -0.88195038      -0.98016984       0.00000000
Si      -1.52155117      -1.84397100      -0.07766437       0.00000000
Si      -0.62812612       1.07704594       2.04170930       0.00000000
H        2.45081423       1.40835196       1.00386010       0.00000000
H        1.26887698      -0.73617117       2.80962960       0.00000000
Si      -2.49572576       2.29842128      -0.53253483       0.00000000
Si       0.80394409      -2.03135895      -2.67101825       0.00000000
Si      -0.63099316      -0.40433409      -3.59750573       0.00000000
Si       2.56363877      -2.60408684       0.55920096       0.00000000
