10
Lattice="16.290000149 0.0 0.0 0.0 16.290000149 0.0 0.0 0.0 29.1751946751" Properties=species:S:1:pos:R:3:initial_magmoms:R:1 pbc="T T T"
Si       1.37717290      -1.34436973       1.33744927       0.00000000
Si       1.36612828       1.34862794      -1.34631853       0.00000000
Si      -1.34618932       1.35154385       1.37461847       0.00000000
Si      -1.35340579      -1.36684993      -1.35332058       0.00000000
Si       0.02503773      -2.69956742       2.67358566       0.00000000
Si       0.00454491       2.71182402      -2.68581007       0.00000000
Si      -2.71505432       2.69447517       0.00884008       0.00000000
Si       2.72758133      -0.01522952      -2.69021553       0.00000000
Si      -2.73492812      -0.01053311      -2.68353441       0.00000000
Si       2.72763021       2.69118459       0.01671739       0.00000000
