10
Lattice="16.290000149 0.0 0.0 0.0 16.290000149 0.0 0.0 0.0 29.1751946751" Properties=species:S:1:pos:R:3:initial_magmoms:R:1 pbc="T T T"
Si      -0.56159776       1.03583224       2.00833288       0.00000000
Si      -1.62197902      -1.68718790      -0.06972872       0.00000000
Si       2.19608750      -0.72158185      -0.46309787       0.00000000
Si       0.04382010       2.14513727      -0.98072417       0.00000000
Si       0.67885318       2.82466974       1.16563655       0.00000000
Si       1.90749386       0.16257420      -2.70512405       0.00000000
Si       1.92481013      -2.75103894       0.73361027       0.00000000
Si      -3.44487891      -0.23051979       0.09333145       0.00000000
Si      -0.22043628      -0.80710435      -3.38537289       0.00000000
Si      -2.79243183       1.54054531       1.67973266       0.00000000
