10
Lattice="16.290000149 0.0 0.0 0.0 16.290000149 0.0 0.0 0.0 29.1751946751" Properties=species:S:1:pos:R:3:initial_magmoms:R:1 pbc="T T T"
Si      -1.34995231      -1.34332228      -1.31250448       0.00000000
Si       1.39577608      -1.28199043       1.36008923       0.00000000
Si       1.38336310       1.33605694      -1.34010422       0.00000000
Si      -1.18319158       1.45222093       1.41102912       0.00000000
Si       2.27362790       0.60717718       2.42991444       0.00000000
Si       0.67170187       2.38329218       2.51840280       0.00000000
Si      -2.66080862       0.08317674      -2.60937106       0.00000000
Si       0.08643474      -2.67884165      -2.59452089       0.00000000
Si       0.02057427      -2.60131754       2.71658990       0.00000000
Si      -2.72233595      -2.59605587       0.11944325       0.00000000
