10
Lattice="16.290000149 0.0 0.0 0.0 16.290000149 0.0 0.0 0.0 29.1751946751" Properties=species:S:1:pos:R:3:initial_magmoms:R:1 pbc="T T T"
Si      -1.34641738      -1.29192733       1.36925024       0.00000000
Si       1.25713189       1.31789033       1.46891270       0.00000000
Si       1.36484137      -1.37031481      -1.34249658       0.00000000
Si      -1.42631983       1.36513622      -1.29476596       0.00000000
Si       2.41859261       2.75950974      -0.03206354       0.00000000
Si       2.70798446       0.00871515      -2.65535117       0.00000000
Si      -0.04500927      -2.69524568      -2.69812200       0.00000000
Si      -0.11795589       2.71215470      -2.71699835       0.00000000
Si      -2.76037311      -2.68527620       0.07156675       0.00000000
Si      -2.77039146       0.01857060      -2.68257162       0.00000000
