10
Lattice="16.290000149 0.0 0.0 0.0 16.290000149 0.0 0.0 0.0 29.1751946751" Properties=species:S:1:pos:R:3:initial_magmoms:R:1 pbc="T T T"
Si      -1.36024759      -1.36427122       1.34080442       0.00000000
Si      -1.36230013       1.35175073      -1.35148254       0.00000000
Si       1.33309216       1.35484909       1.38240825       0.00000000
Si       1.35135325      -1.36106209      -1.35874717       0.00000000
Si      -2.71270856       0.02261052       2.67618226       0.00000000
Si       2.68539023       2.70565499       0.00951111       0.00000000
Si       0.02849121      -2.70572015       2.68788151       0.00000000
Si      -2.71194293      -0.03648960      -2.68779398       0.00000000
Si       2.66629835      -0.01042560       2.75422590       0.00000000
Si      -0.01233153       2.73953820      -2.68601430       0.00000000
