10
Lattice="16.290000149 0.0 0.0 0.0 16.290000149 0.0 0.0 0.0 29.1751946751" Properties=species:S:1:pos:R:3:initial_magmoms:R:1 pbc="T T T"
Si       1.36153450      -1.35013150      -1.32554579       0.00000000
Si      -1.17818241      -1.53668458       1.30669862       0.00000000
Si       1.53218854       1.31259934       1.20123029       0.00000000
Si      -1.03433519       1.54546489      -1.47918237       0.00000000
H        2.71736750      -0.77159215      -1.05272855       0.00000000
Si       0.11174940       2.48854187       2.66906351       0.00000000
Si      -1.39876856      -3.38774988      -0.12670787       0.00000000
Si       2.33230448       2.80236873      -0.51289992       0.00000000
Si       0.91204453      -3.55967454      -0.71610515       0.00000000
Si      -2.66546756      -0.34746570       2.63198184       0.00000000
