10
Lattice="16.290000149 0.0 0.0 0.0 16.290000149 0.0 0.0 0.0 29.1751946751" Properties=species:S:1:pos:R:3:initial_magmoms:R:1 pbc="T T T"
Si      -1.46756611       1.19687518       1.34187369       0.00000000
Si      -1.34162812      -1.35479044      -1.34938193       0.00000000
Si       1.28850643      -1.50100948       1.33148382       0.00000000
Si       1.32685309       1.35596332      -1.48481318       0.00000000
Si       2.17808705      -0.51779394      -2.60161046       0.00000000
Si       0.38113713      -2.11361123      -2.72615937       0.00000000
Si      -0.02625948       2.54516591       2.62157505       0.00000000
Si      -2.84573433       2.41324949      -0.13715259       0.00000000
Si      -2.76555495      -0.30028986       2.58928102       0.00000000
Si       2.70229925      -0.20882151       2.67738136       0.00000000
