10
Lattice="16.290000149 0.0 0.0 0.0 16.290000149 0.0 0.0 0.0 29.1751946751" Properties=species:S:1:pos:R:3:initial_magmoms:R:1 pbc="T T T"
Si       1.30166875       1.23613408      -1.50015933       0.00000000
Si       1.44814843      -1.35065278       1.28344599       0.00000000
Si      -1.50451183       1.33568227       1.24668524       0.00000000
Si      -1.43570287      -1.40939452      -1.31667654       0.00000000
Si       2.50543460      -2.81740440      -0.19459855       0.00000000
Si      -2.81762268      -0.15266988       2.51449333       0.00000000
Si      -0.11878668       2.60744258      -2.75346735       0.00000000
Si       0.13302414      -2.70861977       2.66696290       0.00000000
Si       2.48486033      -0.21608685      -2.91118845       0.00000000
Si       3.15656220       2.16720533      -0.39278565       0.00000000
