10
Lattice="16.290000149 0.0 0.0 0.0 16.290000149 0.0 0.0 0.0 29.1751946751" Properties=species:S:1:pos:R:3:initial_magmoms:R:1 pbc="T T T"
Si       0.87643459      -0.84432700       0.90577309       0.00000000
H       -1.92267614      -0.41272344      -1.24023753       0.00000000
Si       0.87008149       0.99965215      -2.07199315       0.00000000
Si      -1.01346607      -0.34497333      -2.45631799       0.00000000
Si      -0.72591499       2.52935973      -0.98148272       0.00000000
Si      -1.44591670       2.17854480       1.28227898       0.00000000
Si       1.89413606      -2.32842746      -0.57711453       0.00000000
Si      -0.53442603      -2.07381476       2.31939880       0.00000000
Si       2.77609296       0.45349731       1.55182860       0.00000000
Si       2.80023474      -0.48563748      -1.74671891       0.00000000
