10
Lattice="16.290000149 0.0 0.0 0.0 16.290000149 0.0 0.0 0.0 29.1751946751" Properties=species:S:1:pos:R:3:initial_magmoms:R:1 pbc="T T T"
Si      -1.37095338       1.23825178      -1.44420131       0.00000000
Si       1.19822725      -1.40274820      -1.47506867       0.00000000
Si      -1.36785991      -1.42757416       1.29917142       0.00000000
Si       1.43570287       1.40939452       1.31667654       0.00000000
Si      -0.06880896       2.74507680       2.56336178       0.00000000
Si       0.06489936      -2.64060902       2.68160884       0.00000000
Si       2.55420686      -2.75968893      -0.17192942       0.00000000
Si      -2.77552281       2.55697616      -0.13085075       0.00000000
Si       2.73737162       2.64552860      -0.18348280       0.00000000
Si      -0.03938922       2.63489123      -2.78701882       0.00000000
