10
Lattice="16.290000149 0.0 0.0 0.0 16.290000149 0.0 0.0 0.0 29.1751946751" Properties=species:S:1:pos:R:3:initial_magmoms:R:1 pbc="T T T"
Si      -1.34407162      -1.34656562      -1.38780566       0.00000000
Si       1.30836394       1.34701848      -1.42223239       0.00000000
Si       1.42631983      -1.36513622       1.29476596       0.00000000
Si      -1.41796306       1.35539154       1.33648649       0.00000000
Si       0.07990245      -2.65706355       2.66401620       0.00000000
Si      -2.68140081      -2.69694147      -0.01846790       0.00000000
Si       2.60245784       2.78316119      -0.10905688       0.00000000
Si      -0.10371843       2.82303911       2.61471012       0.00000000
Si       2.68345172      -0.04724589       2.76367867       0.00000000
Si       2.73266381      -0.01586320      -2.72058690       0.00000000
