10
Lattice="16.290000149 0.0 0.0 0.0 16.290000149 0.0 0.0 0.0 29.1751946751" Properties=species:S:1:pos:R:3:initial_magmoms:R:1 pbc="T T T"
Si      -0.97827967       1.85916143      -0.89742899       0.00000000
Si      -1.76663423      -1.48296016       0.33312237       0.00000000
Si       0.38055069       0.64671301       2.22379169       0.00000000
Si       1.75918970      -0.97195915      -1.25771347       0.00000000
H       -0.38771829      -1.22272741      -2.57266867       0.00000000
Si       1.86759965      -1.22137534       2.57424413       0.00000000
Si       2.49572576      -2.29842128       0.53253483       0.00000000
Si      -2.46469331       0.84510892      -2.36715860       0.00000000
Si      -1.08196552      -3.53255169      -0.43605246       0.00000000
Si      -3.58552677      -0.59593708      -0.81693463       0.00000000
