10
Lattice="16.290000149 0.0 0.0 0.0 16.290000149 0.0 0.0 0.0 29.1751946751" Properties=species:S:1:pos:R:3:initial_magmoms:R:1 pbc="T T T"
Si      -1.35501850      -1.34342002       1.37712754       0.00000000
Si       1.33408585       1.35027811       1.39562461       0.00000000
Si      -1.37591857       1.34923555      -1.35886387       0.00000000
Si       1.36288657      -1.37468053      -1.34868172       0.00000000
Si       2.69097770       2.71485884       0.06298925       0.00000000
Si       2.71539641      -2.69452892       0.05756266       0.00000000
Si      -2.71274114      -2.70117524       0.02450716       0.00000000
Si       2.72233595      -0.01914075      -2.70097826       0.00000000
Si      -2.71995761       2.71889876       0.00738132       0.00000000
Si      -0.04005711       2.75690334      -2.68702959       0.00000000
