10
Lattice="16.290000149 0.0 0.0 0.0 16.290000149 0.0 0.0 0.0 29.1751946751" Properties=species:S:1:pos:R:3:initial_magmoms:R:1 pbc="T T T"
Si       1.34178776       1.36418977       1.35145337       0.00000000
Si      -1.33928236       1.37251396      -1.35066564       0.00000000
Si       1.36473060      -1.34899120      -1.35291213       0.00000000
Si      -1.35526285      -1.34614045       1.37260538       0.00000000
Si      -2.69775434       0.01102833      -2.68633522       0.00000000
Si       2.67160889       0.00558747       2.71626897       0.00000000
Si      -0.00627165      -2.71818200      -2.67676576       0.00000000
Si       2.69377958      -2.70881525       0.02097696       0.00000000
Si      -2.68490153       2.72517041       0.01237028       0.00000000
Si       2.69303024       2.72844470      -0.01295379       0.00000000
