10
Lattice="16.290000149 0.0 0.0 0.0 16.290000149 0.0 0.0 0.0 29.1751946751" Properties=species:S:1:pos:R:3:initial_magmoms:R:1 pbc="T T T"
Si      -0.97023241       1.45736857       1.51063323       0.00000000
Si       1.56408436      -1.28487376       1.12222386       0.00000000
Si       1.62186499       1.02815965      -1.39066483       0.00000000
Si      -1.89381026      -1.50296428      -0.32060621       0.00000000
H       -0.37993167      -2.35401905      -2.02621727       0.00000000
H        0.76646080      -0.71905690      -3.14826608       0.00000000
H       -2.49364064      -1.59210316      -1.72136566       0.00000000
Si       0.17060517      -2.71821458       2.30037657       0.00000000
Si      -2.66405033       2.38602890       0.20390544       0.00000000
H       -2.13076460       2.64422540      -1.18194549       0.00000000
