10
Lattice="16.290000149 0.0 0.0 0.0 16.290000149 0.0 0.0 0.0 29.1751946751" Properties=species:S:1:pos:R:3:initial_magmoms:R:1 pbc="T T T"
Si      -0.11556126       2.30566056       0.23381001       0.00000000
Si       1.59894496       0.07367967      -1.79284489       0.00000000
Si       0.28859364      -0.88415605       2.24202619       0.00000000
Si      -2.12793014      -0.96967855      -0.68024884       0.00000000
H        1.09423189      -2.74857915       0.05543287       0.00000000
H        2.53211762      -1.83712106       0.60678570       0.00000000
Si      -1.86367376       1.98256307       1.72439988       0.00000000
Si      -1.90749386      -0.16257420       2.70512405       0.00000000
Si       3.17814645      -1.01128321      -0.47077094       0.00000000
Si      -1.04635558      -2.39039462      -2.17862849       0.00000000
