10
Lattice="16.290000149 0.0 0.0 0.0 16.290000149 0.0 0.0 0.0 29.1751946751" Properties=species:S:1:pos:R:3:initial_magmoms:R:1 pbc="T T T"
Si       1.42043914      -1.17594253      -1.46783322       0.00000000
Si      -1.78281345       1.20493873      -0.97450985       0.00000000
Si      -1.36127549      -1.43158150       1.31008294       0.00000000
Si       1.45350784       1.44432354       1.26847911       0.00000000
H        0.83831599       2.61467534      -1.47267630       0.00000000
Si      -0.42619527       2.57614949      -2.31616035       0.00000000
Si      -2.64114659       2.14076666       0.97176738       0.00000000
Si      -0.11174940      -2.48854187      -2.66906351       0.00000000
Si      -2.59884146       0.11644239       2.62550494       0.00000000
Si       2.81131194      -2.48886767      -0.03757765       0.00000000
