10
Lattice="16.290000149 0.0 0.0 0.0 16.290000149 0.0 0.0 0.0 29.1751946751" Properties=species:S:1:pos:R:3:initial_magmoms:R:1 pbc="T T T"
Si       1.36021501       1.36172998      -1.34433462       0.00000000
Si      -1.36487395      -1.35509995      -1.34766059       0.00000000
Si       1.35148357      -1.37603260       1.34191308       0.00000000
Si      -1.37342620       1.36477621       1.33356897       0.00000000
Si      -0.02471193       2.69974172      -2.69377490       0.00000000
Si       2.72880308      -0.01901043      -2.66600011       0.00000000
Si       0.00475668      -2.71925714      -2.68403038       0.00000000
Si       2.72774423      -0.03621267       2.67589051       0.00000000
Si      -0.02559159       2.72728811       2.68155049       0.00000000
Si      -2.71337645      -2.70360245       0.02967117       0.00000000
