10
Lattice="16.290000149 0.0 0.0 0.0 16.290000149 0.0 0.0 0.0 29.1751946751" Properties=species:S:1:pos:R:3:initial_magmoms:R:1 pbc="T T T"
Si      -1.20208798      -0.36908253      -0.88278304       0.00000000
H        1.40362786      -2.03512601       0.46762002       0.00000000
Si      -0.35289027       1.11884608      -2.51294704       0.00000000
Si       0.07669332       2.93136924      -1.02717108       0.00000000
Si      -1.43764138      -1.52827894       2.36397850       0.00000000
Si      -1.97405317      -2.47552616       0.28895113       0.00000000
Si       1.99537841       1.17929827       2.20059741       0.00000000
Si       0.61250401      -0.55628722       3.11608584       0.00000000
H        3.10935378       0.63882865      -0.72164844       0.00000000
Si      -0.65376658      -2.75576304      -1.61858145       0.00000000
