10
Lattice="16.290000149 0.0 0.0 0.0 16.290000149 0.0 0.0 0.0 29.1751946751" Properties=species:S:1:pos:R:3:initial_magmoms:R:1 pbc="T T T"
Si       1.34252407      -1.34395759      -1.37584383       0.00000000
Si      -1.36682875       1.33822351      -1.36198561       0.00000000
Si      -1.35158131      -1.39098682       1.32577920       0.00000000
Si       1.37197639       1.35009892       1.35270790       0.00000000
Si      -2.72953613      -0.04193046       2.64575253       0.00000000
Si      -2.70018155      -0.06294456      -2.70734137       0.00000000
Si       2.69335604      -2.71766072      -0.02643273       0.00000000
Si      -0.01122381       2.70930395      -2.70331519       0.00000000
Si      -2.72126081       2.69482214      -0.00052515       0.00000000
Si       0.02788848       2.71632494       2.70255663       0.00000000
