10
Lattice="16.290000149 0.0 0.0 0.0 16.290000149 0.0 0.0 0.0 29.1751946751" Properties=species:S:1:pos:R:3:initial_magmoms:R:1 pbc="T T T"
Si       0.73653607      -1.32646213       1.79024830       0.00000000
Si      -1.75918970       0.97195915       1.25771347       0.00000000
Si       1.38929266       1.82495243      -0.75321600       0.00000000
Si       0.10554291      -1.73079623      -1.80725743       0.00000000
H       -2.14690799      -0.25076826      -1.31495520       0.00000000
Si       2.87953446       0.56032714      -2.03861673       0.00000000
Si       2.73145835      -2.20841251       0.81007846       0.00000000
Si      -0.78501511      -3.17043313       1.71258393       0.00000000
Si      -2.79228522       0.59007268      -2.39452493       0.00000000
Si       1.54048015      -3.35782108      -0.88076995       0.00000000
