10
Lattice="16.290000149 0.0 0.0 0.0 16.290000149 0.0 0.0 0.0 29.1751946751" Properties=species:S:1:pos:R:3:initial_magmoms:R:1 pbc="T T T"
Si      -0.65984275       0.44031870      -2.12555297       0.00000000
Si      -1.90646759      -0.79490314       1.12685397       0.00000000
Si       0.84554875       1.94207753       1.04527429       0.00000000
Si       1.71100388      -1.66703717      -0.14801422       0.00000000
H       -1.15028578      -2.61866639      -0.79481399       0.00000000
Si       2.15888114       0.67992832       2.51789807       0.00000000
Si      -0.65285434      -2.16606503       2.53668982       0.00000000
Si       3.41604561      -0.71197075       1.14081138       0.00000000
Si       0.85553452      -3.39798326       1.25582875       0.00000000
Si      -2.36589446       2.03281283      -2.13768985       0.00000000
