10
Lattice="16.290000149 0.0 0.0 0.0 16.290000149 0.0 0.0 0.0 29.1751946751" Properties=species:S:1:pos:R:3:initial_magmoms:R:1 pbc="T T T"
Si      -1.30629511      -1.29119428       1.47031019       0.00000000
Si      -1.35066907       1.36642150      -1.37217067       0.00000000
Si       1.37078722       1.40240611       1.31719877       0.00000000
Si       1.43505127      -1.36741519      -1.28790396       0.00000000
Si      -2.61073316      -2.65471616       0.12056357       0.00000000
Si       2.65266362       0.06893928      -2.72870053       0.00000000
Si       2.74838367      -2.62956440       0.18471983       0.00000000
Si      -2.71515206       2.71873586       0.01455842       0.00000000
Si       2.71456562       0.06929766       2.73878931       0.00000000
Si      -2.73932643      -0.00739566      -2.71790570       0.00000000
