10
Lattice="16.290000149 0.0 0.0 0.0 16.290000149 0.0 0.0 0.0 29.1751946751" Properties=species:S:1:pos:R:3:initial_magmoms:R:1 pbc="T T T"
Si       1.31333239      -1.26214921       1.47262379       0.00000000
Si      -0.84554875      -1.94207753      -1.04527429       0.00000000
Si      -1.43505127       1.36741519       1.28790396       0.00000000
Si       1.21761235       1.43635447      -1.44079657       0.00000000
Si       2.57049686      -2.65404827       0.09553709       0.00000000
Si       2.61252506       2.75406888      -0.07074985       0.00000000
Si      -0.06426405       2.76982131       2.60510273       0.00000000
Si      -1.50539149      -1.50175882      -3.17082726       0.00000000
Si      -0.09254349      -2.67081068       2.73367781       0.00000000
Si       2.76125277       0.17456364      -2.64284376       0.00000000
