10
Lattice="16.290000149 0.0 0.0 0.0 16.290000149 0.0 0.0 0.0 29.1751946751" Properties=species:S:1:pos:R:3:initial_magmoms:R:1 pbc="T T T"
Si       0.64602883       0.82583785      -1.07755664       0.00000000
H       -1.43788573      -0.91145809      -0.55135283       0.00000000
H       -0.63170992      -1.65532466       1.10448534       0.00000000
Si      -2.24352398       0.95296501       1.63524049       0.00000000
Si       0.55408807      -2.16736823       1.90344805       0.00000000
Si       1.92116117       2.28920114       0.22059365       0.00000000
Si       1.88307515      -0.54108864      -2.49541275       0.00000000
Si      -2.53211762       1.83712106      -0.60678570       0.00000000
Si      -0.93317266       1.91080073      -2.39963059       0.00000000
Si      -2.28292949      -1.84679732      -1.35912644       0.00000000
