10
Lattice="16.290000149 0.0 0.0 0.0 16.290000149 0.0 0.0 0.0 29.1751946751" Properties=species:S:1:pos:R:3:initial_magmoms:R:1 pbc="T T T"
Si      -1.36777357      -1.36115983       1.32294920       0.00000000
Si      -1.38495952       1.34782647      -1.32096529       0.00000000
Si       1.33097446      -1.35202114      -1.37765269       0.00000000
Si       1.36291915       1.36798046       1.34039597       0.00000000
Si      -0.01796787       2.68126886      -2.64405162       0.00000000
Si       0.01161477      -2.70871751       2.65806446       0.00000000
Si       2.68843646       0.04036509      -2.68478894       0.00000000
Si      -2.69029352       0.00866628       2.70821662       0.00000000
Si      -2.69646743      -2.70550838      -0.08910104       0.00000000
Si       0.01018125       2.72544735       2.68782316       0.00000000
