10
Lattice="16.290000149 0.0 0.0 0.0 16.290000149 0.0 0.0 0.0 29.1751946751" Properties=species:S:1:pos:R:3:initial_magmoms:R:1 pbc="T T T"
Si       1.34104168       1.33281523      -1.37248868       0.00000000
Si      -1.43731558       1.37176462       1.23233105       0.00000000
Si       1.34312680      -1.34576578       1.38325433       0.00000000
Si      -1.38295585      -1.35005005      -1.34121287       0.00000000
Si      -0.15698673      -2.70760979       2.54489388       0.00000000
Si       2.70078428       2.64096740       0.01695079       0.00000000
Si      -0.01404198      -2.73818613      -2.65208355       0.00000000
Si       2.71360451      -0.02741607      -2.69260789       0.00000000
Si      -2.81251740       0.05243751       2.58883172       0.00000000
Si      -0.01686015       2.66629835      -2.74967457       0.00000000
