10
Lattice="16.290000149 0.0 0.0 0.0 16.290000149 0.0 0.0 0.0 29.1751946751" Properties=species:S:1:pos:R:3:initial_magmoms:R:1 pbc="T T T"
Si       1.38302101      -1.31753521      -1.35795944       0.00000000
Si       1.36871839       1.36078516       1.33056393       0.00000000
Si      -1.35694072       1.36940257      -1.33882051       0.00000000
Si      -1.35654976      -1.35480673       1.35737593       0.00000000
Si       0.00571779      -2.68056839      -2.66585424       0.00000000
Si      -0.00923643       2.70984152       2.65053726       0.00000000
Si       0.02011815       2.68882742      -2.70255663       0.00000000
Si       2.71360451      -2.68131773       0.01940150       0.00000000
Si      -2.73426023       0.01238040       2.66909268       0.00000000
Si      -2.73458603      -2.68983740       0.01161173       0.00000000
