10
Lattice="16.290000149 0.0 0.0 0.0 16.290000149 0.0 0.0 0.0 29.1751946751" Properties=species:S:1:pos:R:3:initial_magmoms:R:1 pbc="T T T"
Si       1.35881407      -1.35322660      -1.35238697       0.00000000
Si       1.37383345       1.36327753       1.33283959       0.00000000
Si      -1.35381304      -1.34749252       1.37336394       0.00000000
Si      -1.35518140       1.34998489      -1.36992127       0.00000000
Si       0.00127062       2.72350883       2.65295880       0.00000000
Si       2.68400558      -2.71629236       0.04008672       0.00000000
Si      -2.72272691       0.04064355       2.68423461       0.00000000
Si      -2.71500545      -2.69286734       0.00551411       0.00000000
Si      -0.00268785      -2.69578325      -2.71542289       0.00000000
Si       2.71497287       0.02347389      -2.70789569       0.00000000
