10
Lattice="16.290000149 0.0 0.0 0.0 16.290000149 0.0 0.0 0.0 29.1751946751" Properties=species:S:1:pos:R:3:initial_magmoms:R:1 pbc="T T T"
Si      -1.39768201      -1.25568208      -1.38947361       0.00000000
Si       1.19902546      -1.39507561       1.44257334       0.00000000
Si      -1.41413491       1.39035151       1.28360354       0.00000000
Si       1.87792751       0.80246170      -1.19621566       0.00000000
Si       2.51665841      -2.71291708       0.03990875       0.00000000
Si       2.63379980       0.01122381       2.67854253       0.00000000
Si       2.68973966       2.66409920      -0.01860794       0.00000000
Si       3.51510510      -0.93110383      -1.11102351       0.00000000
Si      -0.09291816       2.72948726       2.67825078       0.00000000
Si      -2.79402173       0.03261258       2.64402828       0.00000000
