10
Lattice="16.290000149 0.0 0.0 0.0 16.290000149 0.0 0.0 0.0 29.1751946751" Properties=species:S:1:pos:R:3:initial_magmoms:R:1 pbc="T T T"
H       -1.44081793       0.29005974       0.44252935       0.00000000
Si       0.44807274      -2.13822542       0.87901944       0.00000000
Si      -0.36015561       0.23216508      -2.36001067       0.00000000
Si       1.21787299       1.59322717       1.41047479       0.00000000
H        0.18120996       2.69759144      -0.98798879       0.00000000
H        1.53147667      -1.40605507      -2.09985546       0.00000000
H        0.36812142      -3.20491092      -0.19351907       0.00000000
Si      -0.79030936       2.95751469       1.49318646       0.00000000
Si       3.41747913       0.16650009       0.36390220       0.00000000
Si      -2.66735720       2.24554394       0.22114798       0.00000000
