10
Lattice="16.290000149 0.0 0.0 0.0 16.290000149 0.0 0.0 0.0 29.1751946751" Properties=species:S:1:pos:R:3:initial_magmoms:R:1 pbc="T T T"
Si       1.33995025       1.36251190       1.36490313       0.00000000
Si      -1.35052246       1.36129015      -1.35723006       0.00000000
Si      -1.35873099      -1.35237952       1.36268582       0.00000000
Si       1.36712197      -1.35358498      -1.35413749       0.00000000
Si      -2.68316991       2.70897815       0.03253034       0.00000000
Si       2.70751205       0.00514764       2.69170346       0.00000000
Si       2.71026506       2.70552467       0.02328181       0.00000000
Si       0.00939933      -2.71134020      -2.70675786       0.00000000
Si      -2.70966233      -2.71393031       0.00930689       0.00000000
Si      -2.71241534       0.00731421      -2.71411001       0.00000000
