10
Lattice="16.290000149 0.0 0.0 0.0 16.290000149 0.0 0.0 0.0 29.1751946751" Properties=species:S:1:pos:R:3:initial_magmoms:R:1 pbc="T T T"
H       -1.43948215       0.33627789      -0.44757666       0.00000000
Si       1.23756597      -1.54802389      -1.31542200       0.00000000
Si       1.39167915       1.29079208       1.44505031       0.00000000
Si      -1.33929865      -1.38347860       1.49589392       0.00000000
Si      -0.04230513       2.02432427      -1.65373756       0.00000000
Si       2.59884146      -0.11644239      -2.62550494       0.00000000
Si       2.61573419      -2.76439820       0.16360428       0.00000000
Si      -2.33061032       2.37863178      -1.86983823       0.00000000
Si       0.01516599       2.58460254       2.84402715       0.00000000
Si       0.81602801       1.08849634      -3.60001480       0.00000000
