10
Lattice="16.290000149 0.0 0.0 0.0 16.290000149 0.0 0.0 0.0 29.1751946751" Properties=species:S:1:pos:R:3:initial_magmoms:R:1 pbc="T T T"
Si      -1.34667802      -1.01910241       1.63491956       0.00000000
Si       1.23040000      -1.43067578      -1.41741848       0.00000000
Si      -1.35322660       1.30911328      -1.42701712       0.00000000
Si       1.42731352       1.27202095       1.40356027       0.00000000
Si       0.08825922      -2.64612726       2.56140704       0.00000000
Si      -0.06292827       2.53664624       2.68896099       0.00000000
Si       2.72269319       2.62980875      -0.04236238       0.00000000
Si      -1.45222093       0.71169382       3.44217699       0.00000000
Si      -2.74439262       2.66361050      -0.11398749       0.00000000
Si       2.61488711      -0.09428652      -2.79758024       0.00000000
