10
Lattice="16.290000149 0.0 0.0 0.0 16.290000149 0.0 0.0 0.0 29.1751946751" Properties=species:S:1:pos:R:3:initial_magmoms:R:1 pbc="T T T"
Si       1.29798884       1.49716504      -1.24740733       0.00000000
Si       1.38701369      -1.33423246       1.37029763       0.00000000
Si      -1.34165907       1.39393531       1.36154799       0.00000000
Si      -1.22622846      -1.48133116      -1.39805782       0.00000000
Si      -2.68773437      -2.65841399       0.01779395       0.00000000
Si       2.76555495       0.30028986      -2.58928102       0.00000000
Si       0.03642933      -2.65562840       2.75707340       0.00000000
Si      -0.08017938       2.71353935      -2.72643361       0.00000000
Si      -2.68431347       0.07291404       2.76308349       0.00000000
Si       2.77265739      -2.70013268       0.01895512       0.00000000
