10
Lattice="16.290000149 0.0 0.0 0.0 16.290000149 0.0 0.0 0.0 29.1751946751" Properties=species:S:1:pos:R:3:initial_magmoms:R:1 pbc="T T T"
H        1.98589763      -0.08325819      -1.06078090       0.00000000
Si       1.02667726      -1.33911946       1.61332992       0.00000000
Si       0.75935836       1.87222601      -1.28216228       0.00000000
Si      -0.77115232      -2.04144653      -1.00943256       0.00000000
Si      -1.07663869       1.10832274       1.86531607       0.00000000
H       -1.22324869       1.25152813      -2.36371592       0.00000000
H       -3.02065473       0.03917745      -1.28312506       0.00000000
H       -1.87426226       1.67413961      -2.40517387       0.00000000
H        2.33336333      -0.81076960       2.54419368       0.00000000
Si      -1.01885806       3.42135615      -0.64757262       0.00000000
