10
Lattice="16.290000149 0.0 0.0 0.0 16.290000149 0.0 0.0 0.0 29.1751946751" Properties=species:S:1:pos:R:3:initial_magmoms:R:1 pbc="T T T"
Si      -1.37109999      -1.37233803      -1.32928022       0.00000000
Si       1.34804312       1.35310931      -1.37625228       0.00000000
Si       1.40598665      -1.33778694       1.33295629       0.00000000
Si      -1.39582821       1.33650980       1.34944028       0.00000000
Si      -0.01636819       2.69929864       2.68192977       0.00000000
Si       0.06865746      -2.68816279       2.70229406       0.00000000
Si      -2.70430618      -0.00706334      -2.70109787       0.00000000
Si      -2.70099931       2.71578412      -0.02462386       0.00000000
Si      -0.00122175      -2.71217425      -2.70906270       0.00000000
Si       2.70328969       2.72171368      -0.03903641       0.00000000
