10
Lattice="16.290000149 0.0 0.0 0.0 16.290000149 0.0 0.0 0.0 29.1751946751" Properties=species:S:1:pos:R:3:initial_magmoms:R:1 pbc="T T T"
Si       0.88192432      -0.75179980      -0.98507127       0.00000000
Si      -1.07944057       1.69624514       0.82003624       0.00000000
Si      -1.93857518      -0.29136294       1.88369353       0.00000000
Si      -1.32651100       2.23122503      -1.48364617       0.00000000
Si       2.28587766      -1.91361890       0.47975690       0.00000000
Si      -0.71228026      -1.87084136      -2.32324993       0.00000000
Si       2.01598526       0.87682555      -2.19578350       0.00000000
Si       0.85506211       2.44579691       1.96269704       0.00000000
Si      -0.51010506      -1.65921797       3.21418452       0.00000000
Si      -3.24609204      -1.73047043       0.50686066       0.00000000
