10
Lattice="16.290000149 0.0 0.0 0.0 16.290000149 0.0 0.0 0.0 29.1751946751" Properties=species:S:1:pos:R:3:initial_magmoms:R:1 pbc="T T T"
Si       0.61545250      -1.30686852       0.43333917       0.00000000
Si      -1.51652245       1.47370744       0.63377275       0.00000000
H        2.01422594       0.34930647      -1.40977458       0.00000000
Si       1.10534167       1.24836787      -2.21530171       0.00000000
Si      -0.03798828       2.67656105      -0.75263250       0.00000000
Si      -2.83438623      -0.22765275      -0.49988779       0.00000000
Si      -1.61955507      -1.51437869      -2.10700338       0.00000000
Si      -0.21890502       1.62566056       2.65415499       0.00000000
Si      -0.23993541      -2.96867334      -0.95417474       0.00000000
Si       2.92193733      -1.21774267       0.08536662       0.00000000
