10
Lattice="10.86 0.0 0.0 0.0 10.86 0.0 0.0 0.0 10.86" Properties=species:S:1:pos:R:3:initial_magmoms:R:1 pbc="T T T"
Si      -1.26420174       1.22694108      -1.24765110       0.00000000
Si       1.45079826       1.22694108       1.46734890       0.00000000
Si      -1.26420174      -1.48805892       1.46734890       0.00000000
Si      -2.34708492      -0.30106092      -2.58934980       0.00000000
Si       2.66862780      -0.22140282      -2.30045208       0.00000000
Si       0.09329826       2.58444108      -2.60515110       0.00000000
Si      -2.62170174       2.58444108       0.10984890       0.00000000
Si      -2.24033112      -3.07533480       0.20066022       0.00000000
Si       2.80829826       2.58444108       0.10984890       0.00000000
Si       0.09329826       2.58444108       2.82484890       0.00000000
