10
Lattice="16.28999089631971 0.0 0.0 0.0 16.28999089631971 0.0 0.0 0.0 34.49183129400761" Properties=species:S:1:pos:R:3:initial_magmoms:R:1 pbc="T T T"
Si       1.33942896       1.35678692       1.38391997       0.00000000
Si      -1.37206760      -1.35774026       1.37988442       0.00000000
Si      -1.45617776       1.23724927      -1.41172385       0.00000000
Si       1.53508815      -1.28205692      -1.57677770       0.00000000
Si      -2.17718293      -0.66574106      -2.52257839       0.00000000
Si      -0.35036532      -2.25833291      -2.92309263       0.00000000
Si       0.00348606       2.21940432      -3.00880488       0.00000000
Si       2.69891091       2.70807174      -0.00853673       0.00000000
Si       2.70324405      -2.71331261      -0.01270680       0.00000000
Si       2.69511534       0.00324093       2.74227803       0.00000000
