10
Lattice="16.28999089631971 0.0 0.0 0.0 16.28999089631971 0.0 0.0 0.0 34.49183129400761" Properties=species:S:1:pos:R:3:initial_magmoms:R:1 pbc="T T T"
Si      -1.35556095       1.35568638      -1.35894442       0.00000000
Si       1.35904212      -1.35900628      -1.35853052       0.00000000
Si      -1.37327306      -1.35815106       1.35625406       0.00000000
Si       1.36062225       1.36340784       1.36501499       0.00000000
Si      -0.00539199      -2.67928374       2.71478457       0.00000000
Si      -2.71330204       2.71052568       0.00217299       0.00000000
Si       2.71823085       2.70891297      -0.00217299       0.00000000
Si       0.00127062       2.71231758      -2.71585382       0.00000000
Si      -2.71375727      -0.00293220      -2.71585382       0.00000000
Si       2.71355562      -2.71698239       0.00124171       0.00000000
