10
Lattice="16.28999089631971 0.0 0.0 0.0 16.28999089631971 0.0 0.0 0.0 34.49183129400761" Properties=species:S:1:pos:R:3:initial_magmoms:R:1 pbc="T T T"
Si       1.27753348      -1.35490446      -1.45541813       0.00000000
Si      -2.06363416      -1.15448859       0.06663826       0.00000000
Si      -0.04699828       2.22382839      -0.81656007       0.00000000
Si       1.32203776      -0.09671373       2.05212714       0.00000000
Si       3.34496254      -0.90218907      -0.45656863       0.00000000
Si      -1.32136402      -3.36930957       0.10716618       0.00000000
Si      -0.33455441       3.41402955       1.18445015       0.00000000
Si      -0.17994586      -1.21409370       3.50061241       0.00000000
Si       2.12943532       2.58067387      -1.63770756       0.00000000
Si       3.56561059       1.43216793      -0.13196582       0.00000000
