10
Lattice="16.28999089631971 0.0 0.0 0.0 16.28999089631971 0.0 0.0 0.0 34.49183129400761" Properties=species:S:1:pos:R:3:initial_magmoms:R:1 pbc="T T T"
Si      -1.35705474      -1.35670939       1.35756475       0.00000000
Si       1.35638685       1.35826020       1.35690940       0.00000000
Si      -1.35773892       1.35744570      -1.35694389       0.00000000
Si       1.35725022      -1.35766073      -1.35739229       0.00000000
Si       0.00213399       2.71120986       2.71392228       0.00000000
Si      -2.71309950       0.00006516      -2.71402575       0.00000000
Si      -0.00083079      -2.71427900      -2.71478457       0.00000000
Si       2.71463076       2.71459818       0.00031043       0.00000000
Si      -2.71482624       2.71461447       0.00024144       0.00000000
Si       0.00034209       2.71469592      -2.71502602       0.00000000
