10
Lattice="16.28999089631971 0.0 0.0 0.0 16.28999089631971 0.0 0.0 0.0 34.49183129400761" Properties=species:S:1:pos:R:3:initial_magmoms:R:1 pbc="T T T"
Si      -1.41216381      -1.72516380       0.78003320       0.00000000
Si      -1.06596873       0.59066237      -2.04898838       0.00000000
Si      -0.17762616       1.63861436       1.79519735       0.00000000
Si       2.28384171      -1.26425988       0.33729581       0.00000000
Si       0.59147361      -2.49900396       1.63170597       0.00000000
Si       2.33575794       2.62661915       0.41817920       0.00000000
Si       0.81401130       1.55247284      -3.20753515       0.00000000
Si       3.66521742       0.68942864      -0.26803617       0.00000000
Si      -2.82330135      -0.78286319       2.47137559       0.00000000
Si      -2.44420047       1.53659009       2.57968000       0.00000000
