10
Lattice="16.28999089631971 0.0 0.0 0.0 16.28999089631971 0.0 0.0 0.0 34.49183129400761" Properties=species:S:1:pos:R:3:initial_magmoms:R:1 pbc="T T T"
Si      -1.69236810      -1.23474408       1.29441017       0.00000000
Si       1.38137571       1.95368852      -0.60533198       0.00000000
Si       0.53783064      -1.46067009      -1.96451784       0.00000000
Si       1.69826508       0.72398248       1.85383349       0.00000000
Si      -2.28384171       1.26425988      -0.33729581       0.00000000
Si      -3.69600552      -0.46090392       0.44273739       0.00000000
Si       0.05191623       3.89087903       0.08088339       0.00000000
Si       1.47439161       0.03779034      -3.61043446       0.00000000
Si       2.56117896      -2.89832775      -0.66741731       0.00000000
Si       2.89810503       1.36681520      -2.28708563       0.00000000
