10
Lattice="16.28999089631971 0.0 0.0 0.0 16.28999089631971 0.0 0.0 0.0 34.49183129400761" Properties=species:S:1:pos:R:3:initial_magmoms:R:1 pbc="T T T"
Si      -2.18888730      -0.45348102       0.74488600       0.00000000
Si       1.48239000      -1.15136091       1.45824646       0.00000000
Si       0.25084971      -1.30324887      -1.97238198       0.00000000
Si       0.80677854       2.30961249      -0.33674394       0.00000000
Si       3.27567465      -0.94294665      -0.08660904       0.00000000
Si       2.49797376      -0.86416821      -2.29315619       0.00000000
Si      -3.48230516       0.50156910      -0.99346877       0.00000000
Si      -1.05430509       3.51590328       0.46519159       0.00000000
Si       2.44789830       2.59556715       1.32572877       0.00000000
Si       0.88679502       2.15744760       3.04749297       0.00000000
