10
Lattice="16.28999089631971 0.0 0.0 0.0 16.28999089631971 0.0 0.0 0.0 34.49183129400761" Properties=species:S:1:pos:R:3:initial_magmoms:R:1 pbc="T T T"
Si      -1.66100400      -1.10542311      -1.38208845       0.00000000
Si       1.20895909       1.66912227      -1.33697311       0.00000000
Si      -1.45394098       1.58311107       1.42861796       0.00000000
Si       1.92402493      -1.92743280      -0.17953008       0.00000000
Si      -0.96397704      -1.04487318       2.41667151       0.00000000
Si      -0.25729729      -2.42517864      -2.82481358       0.00000000
Si       2.47659802       0.29638026      -2.81605265       0.00000000
Si       2.99000995       2.49802263       0.19760381       0.00000000
Si      -1.62016497      -3.29161442       1.39357424       0.00000000
Si      -3.27257370      -2.16965044       0.04225252       0.00000000
