10
Lattice="16.28999089631971 0.0 0.0 0.0 16.28999089631971 0.0 0.0 0.0 34.49183129400761" Properties=species:S:1:pos:R:3:initial_magmoms:R:1 pbc="T T T"
Si      -1.81369602      -1.29349116      -0.91634499       0.00000000
Si      -1.37108043       1.28410812       1.60666489       0.00000000
Si       1.64926476      -1.20495501       1.39433306       0.00000000
Si       1.01071305       1.35167904      -2.22710430       0.00000000
Si      -2.28618747       2.05952841      -0.37264995       0.00000000
Si      -1.14774453       1.21103118      -3.02472834       0.00000000
Si       3.38774985       1.17377595       0.01172723       0.00000000
Si       2.02427685       2.94420573      -0.62830355       0.00000000
Si       1.30872231      -2.47645793      -2.42939900       0.00000000
Si      -3.57848946       0.32348682      -1.19100360       0.00000000
