10
Lattice="16.28999089631971 0.0 0.0 0.0 16.28999089631971 0.0 0.0 0.0 34.49183129400761" Properties=species:S:1:pos:R:3:initial_magmoms:R:1 pbc="T T T"
Si      -0.81344115      -1.81887852      -1.28675298       0.00000000
Si       1.06596873      -0.59066237       2.04898838       0.00000000
Si       1.87998003       0.96181047      -1.15854677       0.00000000
Si      -1.92402493       1.92743280       0.17953008       0.00000000
Si      -2.18132222      -0.49774584      -2.64528350       0.00000000
Si       0.55257309       2.22381306      -2.63652257       0.00000000
Si      -0.34619508      -2.31582617       2.82902158       0.00000000
Si      -2.37739029      -3.01810436       0.12958588       0.00000000
Si      -0.71506584       3.59655507      -1.15744303       0.00000000
Si      -3.58502894       0.82200969      -1.20255837       0.00000000
