10
Lattice="16.28999089631971 0.0 0.0 0.0 16.28999089631971 0.0 0.0 0.0 34.49183129400761" Properties=species:S:1:pos:R:3:initial_magmoms:R:1 pbc="T T T"
Si       1.64111976       0.28595466       1.66247271       0.00000000
Si      -1.86108363       1.20629079       0.80193553       0.00000000
Si       1.29296988       0.88065369      -1.80799382       0.00000000
Si      -0.80677854      -2.30961249       0.33674394       0.00000000
Si       0.08001648      -0.15216489       3.38423690       0.00000000
Si      -2.24764533       0.20323404       2.88786468       0.00000000
Si       2.15373348      -1.03452903      -2.91090524       0.00000000
Si      -3.68106759       0.54002979      -0.62002551       0.00000000
Si       3.38770098      -1.32900336       1.22201177       0.00000000
Si       0.67561146      -3.46097340       1.79499040       0.00000000
