10
Lattice="16.28999089631971 0.0 0.0 0.0 16.28999089631971 0.0 0.0 0.0 34.49183129400761" Properties=species:S:1:pos:R:3:initial_magmoms:R:1 pbc="T T T"
Si      -1.23002532      -0.04080645       1.94247755       0.00000000
Si      -0.60473367      -1.80271656      -1.30634435       0.00000000
Si      -0.09782145       1.80796194      -1.48401187       0.00000000
Si       2.28809340      -0.04406445       0.51437697       0.00000000
Si       1.73654658       0.92365929      -2.72509764       0.00000000
Si       0.95636961      -1.36459701      -3.02810855       0.00000000
Si       2.19605490       1.41325524       2.39904617       0.00000000
Si      -0.85235796      -2.22400854       2.64707707       0.00000000
Si      -0.10130751       1.68629193       3.13817204       0.00000000
Si      -2.93239548      -1.44731763      -1.80271657       0.00000000
