10
Lattice="16.28999089631971 0.0 0.0 0.0 16.28999089631971 0.0 0.0 0.0 34.49183129400761" Properties=species:S:1:pos:R:3:initial_magmoms:R:1 pbc="T T T"
Si      -0.91510704       0.77542029      -1.97931484       0.00000000
Si      -1.52311500      -1.24859592       1.37070756       0.00000000
Si       1.18322415       1.58022774       1.38971947       0.00000000
Si       1.37108043      -1.28410812      -1.60666489       0.00000000
Si      -0.44261559      -2.57759928      -2.52300989       0.00000000
Si      -2.20740903      -0.96062130      -2.79766849       0.00000000
Si      -0.05452263      -2.44434708       2.85554034       0.00000000
Si       2.37583134       2.90370879      -0.25279077       0.00000000
Si       2.63875194       0.28887057       2.87279661       0.00000000
Si       3.02034519      -2.48906313      -0.21233183       0.00000000
