10
Lattice="16.28999089631971 0.0 0.0 0.0 16.28999089631971 0.0 0.0 0.0 34.49183129400761" Properties=species:S:1:pos:R:3:initial_magmoms:R:1 pbc="T T T"
Si       0.87405624      -0.96800623       1.94344332       0.00000000
Si       0.37910088       2.31945328       0.10830441       0.00000000
Si      -2.09749130      -0.88557883      -0.59508790       0.00000000
Si       1.41113754      -0.94230061      -1.69134238       0.00000000
Si      -1.13066935       2.25608518      -1.92416238       0.00000000
Si      -1.78685729       0.00934394      -2.94725965       0.00000000
Si       3.14320437      -0.82460536       1.33007474       0.00000000
Si       2.64567519       2.42147755      -0.67617824       0.00000000
Si      -0.19825419      -3.05646568       1.99780248       0.00000000
Si      -2.41213265      -2.61920950       1.02854698       0.00000000
