10
Lattice="16.28999089631971 0.0 0.0 0.0 16.28999089631971 0.0 0.0 0.0 34.49183129400761" Properties=species:S:1:pos:R:3:initial_magmoms:R:1 pbc="T T T"
Si       0.38605671       2.31894177      -0.00462191       0.00000000
Si      -2.17643359      -0.35684548       0.82114749       0.00000000
Si       0.14196735      -1.05288364      -2.10645181       0.00000000
Si       1.43617527      -1.14850594       1.50574174       0.00000000
Si      -2.12943532      -2.58067387       1.63770756       0.00000000
Si       2.41111548      -0.90948277      -2.71982038       0.00000000
Si       3.63866472      -0.68880214       0.86322754       0.00000000
Si      -0.90736114       3.27399189      -1.74297668       0.00000000
Si      -2.46398972       0.83335568       2.82215771       0.00000000
Si       2.57494401       2.77242279      -0.74950791       0.00000000
