10
Lattice="16.28999089631971 0.0 0.0 0.0 16.28999089631971 0.0 0.0 0.0 34.49183129400761" Properties=species:S:1:pos:R:3:initial_magmoms:R:1 pbc="T T T"
Si       1.72887399       0.00470781      -1.60042187       0.00000000
Si      -0.41689368      -1.52601462       1.79975027       0.00000000
Si      -1.92920841       0.03715749      -1.44800238       0.00000000
Si       0.37475145       2.33126190       0.58391254       0.00000000
Si      -1.31271336       2.11157496      -2.49565785       0.00000000
Si       0.64016442       1.19244429      -3.37902863       0.00000000
Si       3.46861341       1.12199004      -0.51123821       0.00000000
Si      -1.95336648      -0.29388789       3.15645272       0.00000000
Si      -1.35022923       3.45185100      -0.53738303       0.00000000
Si      -1.02024270      -3.60878886       0.71970695       0.00000000
