10
Lattice="16.28999089631971 0.0 0.0 0.0 16.28999089631971 0.0 0.0 0.0 34.49183129400761" Properties=species:S:1:pos:R:3:initial_magmoms:R:1 pbc="T T T"
Si       1.95287778      -0.91913067      -0.88337078       0.00000000
Si      -1.26506511       1.11959541      -1.62477311       0.00000000
Si      -0.03751587       1.34027604       1.95827482       0.00000000
Si      -0.61649505      -2.07441747       1.04765547       0.00000000
Si       1.68746481       0.21968694       3.07957039       0.00000000
Si       1.31271336      -2.11157496       2.49565785       0.00000000
Si      -2.24000532       0.88057224       2.60078901       0.00000000
Si       1.00028745      -2.57427612      -2.35489661       0.00000000
Si      -2.46065337      -1.45378476       2.27618620       0.00000000
Si      -3.53421324       0.97619454      -1.01140453       0.00000000
