10
Lattice="16.28999089631971 0.0 0.0 0.0 16.28999089631971 0.0 0.0 0.0 34.49183129400761" Properties=species:S:1:pos:R:3:initial_magmoms:R:1 pbc="T T T"
Si      -1.84415832       0.62063271       1.22853073       0.00000000
Si      -0.54991782      -2.10828438      -1.00526498       0.00000000
Si       0.61649505       2.07441747      -1.04765547       0.00000000
Si       1.92920841      -0.03715749       1.44800238       0.00000000
Si       2.56937283       1.15528680      -1.93102625       0.00000000
Si       0.57897918       3.41469351       0.91061935       0.00000000
Si       3.65808240      -0.03244968      -0.15241949       0.00000000
Si      -1.62351027       2.95498971       1.55313354       0.00000000
Si       1.33882623      -2.63251287      -2.34458354       0.00000000
Si       1.61678250      -0.49985865      -3.40255208       0.00000000
