10
Lattice="16.28999089631971 0.0 0.0 0.0 16.28999089631971 0.0 0.0 0.0 34.49183129400761" Properties=species:S:1:pos:R:3:initial_magmoms:R:1 pbc="T T T"
Si      -0.21535380      -0.49247928      -2.28284313       0.00000000
Si       1.72941156      -1.41263622       0.77848107       0.00000000
Si      -1.74819393      -1.05684633       1.25471005       0.00000000
Si       1.01589327       2.14755210       0.48123030       0.00000000
Si       0.09158238       2.13800127       2.57936957       0.00000000
Si       1.85111415       0.34370271      -3.20487928       0.00000000
Si       3.11197644      -0.02379969       2.05209265       0.00000000
Si       3.32171019       1.65346662       0.37175317       0.00000000
Si      -2.26637883       2.23817662       2.16436362       0.00000000
Si      -3.56705388       0.38581236       1.40816429       0.00000000
