10
Lattice="16.28999089631971 0.0 0.0 0.0 16.28999089631971 0.0 0.0 0.0 34.49183129400761" Properties=species:S:1:pos:R:3:initial_magmoms:R:1 pbc="T T T"
Si       0.78464043       1.21741686       1.82630900       0.00000000
Si      -0.71558712       0.82489302      -2.10790046       0.00000000
Si       1.81108962      -1.14106563      -1.08345801       0.00000000
Si      -1.99891332      -1.24019028       0.73691839       0.00000000
Si       2.38151655       2.47712256       0.46188037       0.00000000
Si      -1.90011447      -2.67193467      -1.20407601       0.00000000
Si      -1.51086492      -1.23588972      -3.07291346       0.00000000
Si       1.65508029      -0.29703186       3.35012446       0.00000000
Si       2.76201837       0.46910313      -2.58412944       0.00000000
Si       3.39609033      -1.14543135       1.33266163       0.00000000
