10
Lattice="16.28999089631971 0.0 0.0 0.0 16.28999089631971 0.0 0.0 0.0 34.49183129400761" Properties=species:S:1:pos:R:3:initial_magmoms:R:1 pbc="T T T"
Si      -1.51672932       0.58687331       1.68175365       0.00000000
Si       1.24918236       1.48536455      -1.31565715       0.00000000
Si      -1.42371342      -1.32902486      -1.32334883       0.00000000
Si       0.47573316       0.62877119       3.04256063       0.00000000
Si       2.32916049      -0.88306950       2.54674028       0.00000000
Si       2.44639962      -0.00571616      -2.73234093       0.00000000
Si      -2.36027439      -2.82748529       0.32256779       0.00000000
Si      -0.26130789       2.69401739      -2.72871928       0.00000000
Si      -0.26583651      -2.72878418      -2.76017585       0.00000000
Si       2.36384190       3.10983593       0.03287073       0.00000000
