10
Lattice="16.28999089631971 0.0 0.0 0.0 16.28999089631971 0.0 0.0 0.0 34.49183129400761" Properties=species:S:1:pos:R:3:initial_magmoms:R:1 pbc="T T T"
Si      -1.27340559       1.31494509       1.51533737       0.00000000
Si       1.38282552       1.41310863      -1.39728008       0.00000000
Si       1.44089937      -1.39198050       1.50844590       0.00000000
Si      -1.54859256      -1.49433057      -1.60661112       0.00000000
Si      -2.49155550       2.69557146      -0.02871102       0.00000000
Si       2.72758131       2.56986153       0.14327570       0.00000000
Si      -2.62295064      -0.04601925       2.89083098       0.00000000
Si       2.72767905       0.08387721      -2.81737855       0.00000000
Si      -2.74119975      -2.81781162       0.03589912       0.00000000
Si       0.09027918       2.67025680       2.89324541       0.00000000
