10
Lattice="16.28999089631971 0.0 0.0 0.0 16.28999089631971 0.0 0.0 0.0 34.49183129400761" Properties=species:S:1:pos:R:3:initial_magmoms:R:1 pbc="T T T"
Si      -1.35726651       1.35770634      -1.35759924       0.00000000
Si       1.35777150      -1.35744570      -1.35756475       0.00000000
Si      -1.35861858      -1.35593073       1.35828908       0.00000000
Si       1.35803214       1.35920502       1.35611609       0.00000000
Si       2.71083519       0.00066789       2.71371533       0.00000000
Si       0.00503361       2.71195920       2.71416372       0.00000000
Si       2.71463076       2.71505430      -0.00006898       0.00000000
Si      -0.00021177      -2.71521720      -2.71447415       0.00000000
Si       2.71542897      -0.00063531      -2.71447415       0.00000000
Si      -2.71503801       2.71495656      -0.00044839       0.00000000
