10
Lattice="16.28999089631971 0.0 0.0 0.0 16.28999089631971 0.0 0.0 0.0 34.49183129400761" Properties=species:S:1:pos:R:3:initial_magmoms:R:1 pbc="T T T"
Si      -2.05436448      -0.34305111       0.99495192       0.00000000
Si       0.26134047       2.17609965      -0.74619670       0.00000000
Si       1.03404033      -1.81436391      -1.02088979       0.00000000
Si       1.95336648       0.15641658       1.32662556       0.00000000
Si       2.54014857       1.94895189      -0.21471177       0.00000000
Si      -0.98135847       3.00333843       1.11322448       0.00000000
Si       2.45532654      -2.13275196       0.91448243       0.00000000
Si      -1.93228722       1.39316967       2.61389591       0.00000000
Si      -2.02724163      -2.41126209       2.07075274       0.00000000
Si      -3.71776896       0.06621885      -0.73226199       0.00000000
