10
Lattice="16.28999089631971 0.0 0.0 0.0 16.28999089631971 0.0 0.0 0.0 34.49183129400761" Properties=species:S:1:pos:R:3:initial_magmoms:R:1 pbc="T T T"
Si      -1.41429780       1.29834558       1.27443939       0.00000000
Si       1.34475579       1.36842516      -1.33956000       0.00000000
Si      -1.36405944      -1.34946360      -1.34038780       0.00000000
Si       1.30432401      -1.31476590       1.46466194       0.00000000
Si       2.02500990       0.56816262       2.69491727       0.00000000
Si      -0.57793662      -2.05509753       2.73206499       0.00000000
Si      -2.28364623      -0.37945926       2.60023714       0.00000000
Si       0.23522760       2.34422874       2.62189802       0.00000000
Si       2.70303228       0.01195686      -2.69715924       0.00000000
Si      -0.01106091      -2.70221778      -2.69843544       0.00000000
