10
Lattice="16.28999089631971 0.0 0.0 0.0 16.28999089631971 0.0 0.0 0.0 34.49183129400761" Properties=species:S:1:pos:R:3:initial_magmoms:R:1 pbc="T T T"
Si       1.35571896       1.35702216      -1.35770271       0.00000000
Si      -1.35974259       1.35573525       1.35801314       0.00000000
Si      -1.35933534      -1.35804843      -1.35794416       0.00000000
Si       1.36073628      -1.36104579       1.35666796       0.00000000
Si      -0.00027693       2.71230129       2.69891832       0.00000000
Si       2.72479572      -0.01158219       2.69705576       0.00000000
Si       2.71287144      -0.00006516      -2.71450864       0.00000000
Si       2.71373481      -2.71379997      -0.00137967       0.00000000
Si       2.71402803       2.71433754      -0.00072433       0.00000000
Si      -0.00151497       2.71402803      -2.71464661       0.00000000
