10
Lattice="16.28999089631971 0.0 0.0 0.0 16.28999089631971 0.0 0.0 0.0 34.49183129400761" Properties=species:S:1:pos:R:3:initial_magmoms:R:1 pbc="T T T"
Si      -1.35599589      -1.35879777       1.34225036       0.00000000
Si       1.35830907      -1.35676152      -1.35739229       0.00000000
Si      -1.35839052       1.35738284      -1.35697839       0.00000000
Si       1.35624024       1.36427025       1.37008529       0.00000000
Si      -2.51387280       0.04096155       2.77907738       0.00000000
Si      -0.04522104      -2.78433567       2.61482719       0.00000000
Si       2.71383255      -2.71425609       0.00082780       0.00000000
Si       0.00000000      -2.71407690      -2.71437067       0.00000000
Si       2.71511946       0.00083099      -2.71440516       0.00000000
Si      -2.71523349       0.00070566      -2.71440516       0.00000000
