10
Lattice="16.28999089631971 0.0 0.0 0.0 16.28999089631971 0.0 0.0 0.0 34.49183129400761" Properties=species:S:1:pos:R:3:initial_magmoms:R:1 pbc="T T T"
Si      -0.12207726      -1.73622078      -1.61894399       0.00000000
Si       0.95092875       1.61016876      -1.50067143       0.00000000
Si      -1.81108962       1.14106563       1.08345801       0.00000000
Si       1.58500071      -0.00436572       2.41611964       0.00000000
Si      -2.52667674       1.96595865      -1.02444245       0.00000000
Si       1.93228722      -1.39316967      -2.61389591       0.00000000
Si       2.33349363       2.99900529      -0.22705985       0.00000000
Si      -0.09495441      -3.80443176      -0.54314317       0.00000000
Si       3.75411195      -0.21022245       0.83811748       0.00000000
Si      -0.77848281       3.02280498      -2.27915250       0.00000000
