10
Lattice="16.28999089631971 0.0 0.0 0.0 16.28999089631971 0.0 0.0 0.0 34.49183129400761" Properties=species:S:1:pos:R:3:initial_magmoms:R:1 pbc="T T T"
Si      -1.33214733      -1.37386358      -1.36283855       0.00000000
Si       1.35777294      -1.35571243       1.35922036       0.00000000
Si      -1.35894438       1.35806146       1.35887544       0.00000000
Si       1.34729703       1.35907144      -1.38507890       0.00000000
Si      -2.73297330      -0.03880767      -2.63590516       0.00000000
Si       2.71453043       0.00100346       2.71612976       0.00000000
Si      -0.00092853      -2.71454346       2.71612976       0.00000000
Si       2.71510547       2.71624021      -0.00351817       0.00000000
Si      -0.00117288       2.71627279       2.71592281       0.00000000
Si      -2.71375110      -2.71855080       0.00089679       0.00000000
