10
Lattice="16.28999089631971 0.0 0.0 0.0 16.28999089631971 0.0 0.0 0.0 34.49183129400761" Properties=species:S:1:pos:R:3:initial_magmoms:R:1 pbc="T T T"
Si       1.35696514       1.35694071      -1.35732330       0.00000000
Si      -1.35738833       1.35791811       1.35697839       0.00000000
Si       1.35771448      -1.35752715       1.35739229       0.00000000
Si      -1.35915040      -1.35658233      -1.35759924       0.00000000
Si      -2.71445061      -0.00078192      -2.71261159       0.00000000
Si       0.00088292      -2.71415835       2.71430169       0.00000000
Si      -2.71480899       0.00110772       2.71437067       0.00000000
Si       2.71480180      -2.71469592       0.00020695       0.00000000
Si       2.71476923       2.71484253      -0.00024144       0.00000000
Si      -2.71524882      -2.71459818      -0.00051738       0.00000000
