10
Lattice="16.28999089631971 0.0 0.0 0.0 16.28999089631971 0.0 0.0 0.0 34.49183129400761" Properties=species:S:1:pos:R:3:initial_magmoms:R:1 pbc="T T T"
Si      -1.36021500      -1.34482095       1.39244980       0.00000000
Si       1.35426005       1.37028222       1.38675865       0.00000000
Si      -1.21266018       1.30969971      -1.59946989       0.00000000
Si       1.41870166      -1.33626870      -1.54211339       0.00000000
Si       0.69778282       2.25258120      -2.90959597       0.00000000
Si       2.50821107       0.50834574      -2.79249613       0.00000000
Si      -2.69363295      -2.68910433       0.03335017       0.00000000
Si      -2.70374904       2.71404432       0.00300424       0.00000000
Si       2.71305782      -2.70633915      -0.00538763       0.00000000
Si      -0.00491479      -2.70062136       2.74746215       0.00000000
