10
Lattice="16.28999089631971 0.0 0.0 0.0 16.28999089631971 0.0 0.0 0.0 34.49183129400761" Properties=species:S:1:pos:R:3:initial_magmoms:R:1 pbc="T T T"
Si       1.35556095      -1.35568638       1.35894442       0.00000000
Si       1.35683157       1.35663120      -1.35690940       0.00000000
Si      -1.35774109       1.35483930       1.36111741       0.00000000
Si      -1.35819633      -1.35861858      -1.35690940       0.00000000
Si       2.71391889      -0.00053757      -2.71409474       0.00000000
Si      -0.00088292       2.71415835      -2.71430169       0.00000000
Si      -0.01771212      -2.71383744       2.71519848       0.00000000
Si       2.71460307      -2.71469266       0.00041390       0.00000000
Si      -2.71390001      -2.71572871      -0.00013797       0.00000000
Si      -0.00042843      -2.71570916      -2.71461212       0.00000000
