10
Lattice="16.28999089631971 0.0 0.0 0.0 16.28999089631971 0.0 0.0 0.0 34.49183129400761" Properties=species:S:1:pos:R:3:initial_magmoms:R:1 pbc="T T T"
Si       0.50676561      -0.02950119       2.39801142       0.00000000
Si      -1.02638403       2.04048540      -0.91055036       0.00000000
Si       0.23003109      -2.22228180      -1.03123735       0.00000000
Si      -2.31888150      -0.89779077       0.09243816       0.00000000
Si       2.26939248       0.45538695      -1.01223234       0.00000000
Si      -1.48675572      -3.15416428       0.34191771       0.00000000
Si       3.57273829      -0.50661900       0.66086386       0.00000000
Si       0.79399089       3.36052926      -1.50018855       0.00000000
Si       2.76786648       0.73202373       2.52490694       0.00000000
Si      -2.04289632       1.46891817      -2.98516619       0.00000000
