10
Lattice="16.28999089631971 0.0 0.0 0.0 16.28999089631971 0.0 0.0 0.0 34.49183129400761" Properties=species:S:1:pos:R:3:initial_magmoms:R:1 pbc="T T T"
Si       1.35604476      -1.35687555       1.36070350       0.00000000
Si      -1.35832536       1.35951453       1.36077249       0.00000000
Si      -1.36658439      -1.34496756      -1.38393722       0.00000000
Si       1.37007045       1.34429967      -1.38427179       0.00000000
Si      -0.07990245       2.61687447      -2.74910742       0.00000000
Si       0.11129328      -2.65067622      -2.72249350       0.00000000
Si       2.71360449      -2.71456560       0.00517378       0.00000000
Si      -2.71360449      -2.71601541      -0.00224197       0.00000000
Si       2.71419093       2.71562445       0.00068984       0.00000000
Si       2.71303434       0.00109143       2.71750943       0.00000000
