10
Lattice="16.28999089631971 0.0 0.0 0.0 16.28999089631971 0.0 0.0 0.0 34.49183129400761" Properties=species:S:1:pos:R:3:initial_magmoms:R:1 pbc="T T T"
Si       1.35145098       1.35580041      -1.37898419       0.00000000
Si      -1.36500426      -1.35966114      -1.38063979       0.00000000
Si       1.46505632      -1.27744551       1.38736571       0.00000000
Si      -1.40242239       1.38632787       1.42485835       0.00000000
Si       1.37274659      -0.03445335       3.53362111       0.00000000
Si      -2.70674640       2.70109377      -0.03980360       0.00000000
Si       2.70049660       2.70912474      -0.00413902       0.00000000
Si      -2.71920825      -2.69223201      -0.01779779       0.00000000
Si       2.71073486      -0.00360009      -2.73558316       0.00000000
Si       2.72941135      -2.71966437      -0.00206951       0.00000000
