10
Lattice="16.28999089631971 0.0 0.0 0.0 16.28999089631971 0.0 0.0 0.0 34.49183129400761" Properties=species:S:1:pos:R:3:initial_magmoms:R:1 pbc="T T T"
Si      -1.35516510       1.35725022      -1.35797865       0.00000000
Si       1.35928388      -1.35940050      -1.35659897       0.00000000
Si       1.34904562       1.35332433       1.37484516       0.00000000
Si      -1.35145098      -1.35580041       1.37898419       0.00000000
Si       0.11360534      -2.63324592       2.76634989       0.00000000
Si      -2.71344159       2.71371852      -0.00037941       0.00000000
Si      -2.71265967      -0.00107514      -2.71543992       0.00000000
Si       0.00273521       2.71420722      -2.71547441       0.00000000
Si       2.71524068       2.71541268       0.00317325       0.00000000
Si       0.00276055      -2.71575477      -2.71578484       0.00000000
