10
Lattice="16.28999089631971 0.0 0.0 0.0 16.28999089631971 0.0 0.0 0.0 34.49183129400761" Properties=species:S:1:pos:R:3:initial_magmoms:R:1 pbc="T T T"
Si      -1.20624192      -0.01326006      -2.05364478       0.00000000
Si       1.48310676      -1.84943628      -0.24978998       0.00000000
Si       0.84828546       2.26279503       0.23271652       0.00000000
Si      -0.88316235      -0.25645347       2.28415382       0.00000000
Si       0.67601871       0.72707157      -3.32104783       0.00000000
Si       1.39670460       2.61000009      -2.09079251       0.00000000
Si       3.45118769      -0.69370965      -1.21228507       0.00000000
Si       3.29452218      -1.33908687       1.21569977       0.00000000
Si       0.51758217      -3.66568983       0.85160379       0.00000000
Si      -2.60182251      -1.95450678       2.06809687       0.00000000
