10
Lattice="16.28999089631971 0.0 0.0 0.0 16.28999089631971 0.0 0.0 0.0 34.49183129400761" Properties=species:S:1:pos:R:3:initial_magmoms:R:1 pbc="T T T"
Si       1.35500026      -1.35669636       1.35918586       0.00000000
Si       1.33569855       1.36085031      -1.37794943       0.00000000
Si      -1.35827649       1.35827649       1.36080698       0.00000000
Si      -1.34412048      -1.37132478      -1.38496162       0.00000000
Si      -2.71396287       2.71116099       0.00155213       0.00000000
Si       2.71388861      -2.71508688      -0.00120721       0.00000000
Si      -2.71419093      -2.71562445      -0.00068984       0.00000000
Si       2.71402056       0.00021177       2.71685409       0.00000000
Si      -0.00115659      -2.71453302       2.71681959       0.00000000
Si       2.71839116       2.71318095      -0.00293181       0.00000000
