10
Lattice="16.28999089631971 0.0 0.0 0.0 16.28999089631971 0.0 0.0 0.0 34.49183129400761" Properties=species:S:1:pos:R:3:initial_magmoms:R:1 pbc="T T T"
Si       1.35218403       1.35615879      -1.37049919       0.00000000
Si      -1.36391283      -1.35915615      -1.36739492       0.00000000
Si       1.27992159      -1.38939039       1.46297184       0.00000000
Si      -1.38497580       1.37286925       1.39267745       0.00000000
Si      -0.68365872      -2.15941869       2.66708235       0.00000000
Si      -2.47344102      -0.38335257       2.59406310       0.00000000
Si       2.49678037       0.19508904       2.76459081       0.00000000
Si       2.69284844       2.71544756      -0.01027857       0.00000000
Si       2.69857438      -2.71955034       0.00782965       0.00000000
Si       2.70942515       0.00086337      -2.72613239       0.00000000
