10
Lattice="16.28999089631971 0.0 0.0 0.0 16.28999089631971 0.0 0.0 0.0 34.49183129400761" Properties=species:S:1:pos:R:3:initial_magmoms:R:1 pbc="T T T"
Si       0.16757523       1.81868076       1.43875856       0.00000000
Si       0.21146049      -2.07826191       1.07283452       0.00000000
Si       2.16441387       0.30535605      -0.87429943       0.00000000
Si      -1.76920803       0.09159867      -1.75456595       0.00000000
Si       0.48221658       3.55231143      -0.18487632       0.00000000
Si       0.67702869      -3.51028323      -0.77158270       0.00000000
Si       2.38145369       1.38142458       2.40801406       0.00000000
Si       3.63645647       0.02720430       0.86053718       0.00000000
Si      -1.86056235      -2.55184479       2.00663239       0.00000000
Si      -2.00363742       2.22995439       2.40722074       0.00000000
