10
Lattice="16.28999089631971 0.0 0.0 0.0 16.28999089631971 0.0 0.0 0.0 34.49183129400761" Properties=species:S:1:pos:R:3:initial_magmoms:R:1 pbc="T T T"
Si      -1.95566337       1.28635192       0.12510194       0.00000000
Si       2.09749130       0.88557883       0.59508790       0.00000000
Si      -0.31464135      -1.73363067       1.62363488       0.00000000
Si       0.31063401       0.89492277      -2.35217175       0.00000000
Si       0.96682194       3.14166401      -1.32907448       0.00000000
Si      -0.48221658      -3.55231143       0.18487632       0.00000000
Si      -2.44172439       1.02030527       2.43715967       0.00000000
Si       3.50862884      -0.05672178      -1.09625449       0.00000000
Si      -1.23020451       3.47883443      -0.33112177       0.00000000
Si       1.68219729      -3.24695538      -0.68942311       0.00000000
