10
Lattice="16.28999089631971 0.0 0.0 0.0 16.28999089631971 0.0 0.0 0.0 34.49183129400761" Properties=species:S:1:pos:R:3:initial_magmoms:R:1 pbc="T T T"
Si       0.74227014      -2.21482098       0.04052792       0.00000000
Si       2.06363416       1.15448859      -0.06663826       0.00000000
Si      -1.54240236       0.20588931      -1.78885085       0.00000000
Si      -1.26700362      -0.04877226       2.01356525       0.00000000
Si       1.74232434      -2.12897268       2.18309270       0.00000000
Si      -1.26133470      -3.34891449      -0.51468739       0.00000000
Si      -0.04351059       1.34345259       3.41959105       0.00000000
Si       3.34116764      -0.20041587      -1.52205638       0.00000000
Si      -1.96160922      -2.09634381      -2.36317465       0.00000000
Si      -3.63941406       0.71649936      -0.81497345       0.00000000
