10
Lattice="16.28999089631971 0.0 0.0 0.0 16.28999089631971 0.0 0.0 0.0 34.49183129400761" Properties=species:S:1:pos:R:3:initial_magmoms:R:1 pbc="T T T"
Si       0.81321309      -0.64378080       2.10965955       0.00000000
Si       0.67758255      -1.47202956      -1.70951959       0.00000000
Si      -2.26341242      -0.34296966       0.56777035       0.00000000
Si       0.55684107       2.21988717      -0.66831410       0.00000000
Si       3.24395802       0.24376356       0.27593480       0.00000000
Si      -3.21495272       0.13615182      -1.54985681       0.00000000
Si       2.96126136      -1.67097933      -1.17637906       0.00000000
Si      -0.15223005       3.54646332       1.09135664       0.00000000
Si       2.10551508       1.09226079       2.92801319       0.00000000
Si       2.86629066       2.42696565      -0.42866472       0.00000000
