10
Lattice="16.28999089631971 0.0 0.0 0.0 16.28999089631971 0.0 0.0 0.0 34.49183129400761" Properties=species:S:1:pos:R:3:initial_magmoms:R:1 pbc="T T T"
Si       1.35229806       1.33959186       1.36839864       0.00000000
Si       1.39942503      -1.23911514      -1.44479809       0.00000000
Si      -1.35912357      -1.37479455       1.36801923       0.00000000
Si      -1.37855265       1.36319607      -1.44435659       0.00000000
Si      -2.01560080      -0.49249557      -2.92833539       0.00000000
Si      -0.20517255      -2.23673103      -2.81123556       0.00000000
Si       2.72069064       2.69790093      -0.02629659       0.00000000
Si      -0.00115659       2.69798238       2.72965401       0.00000000
Si       2.70498708      -2.72702745      -0.01050277       0.00000000
Si      -2.73731363       2.70114264      -0.00872299       0.00000000
