10
Lattice="16.28999089631971 0.0 0.0 0.0 16.28999089631971 0.0 0.0 0.0 34.49183129400761" Properties=species:S:1:pos:R:3:initial_magmoms:R:1 pbc="T T T"
Si       1.35720135       1.35658233       1.35759924       0.00000000
Si      -1.35703682       1.35752715      -1.35753025       0.00000000
Si       1.35757602      -1.35725022      -1.35753025       0.00000000
Si      -1.35805820      -1.35782037       1.35887544       0.00000000
Si      -0.00011403      -2.71446786       2.71409474       0.00000000
Si      -2.71458153      -2.71417464      -0.00031043       0.00000000
Si       0.00079821       2.71500543      -2.71395677       0.00000000
Si      -0.00022806      -2.71515204      -2.71461212       0.00000000
Si       2.71542897      -2.71445157       0.00000000       0.00000000
Si       2.71495656       0.00060273      -2.71509500       0.00000000
