10
Lattice="16.28999089631971 0.0 0.0 0.0 16.28999089631971 0.0 0.0 0.0 34.49183129400761" Properties=species:S:1:pos:R:3:initial_magmoms:R:1 pbc="T T T"
Si      -1.35570368      -1.35711013       1.35677143       0.00000000
Si       1.35776790      -1.35709058      -1.35770271       0.00000000
Si       1.35819633       1.35861858       1.35690940       0.00000000
Si      -1.35793541       1.35817875      -1.35790967       0.00000000
Si      -0.00018020      -2.71450763       2.71188726       0.00000000
Si       0.00101041      -2.71380647      -2.71461212       0.00000000
Si       2.71440887      -2.71440770       0.00010348       0.00000000
Si       2.71375727       0.00293220       2.71585382       0.00000000
Si      -2.71499015      -2.71473548      -0.00024144       0.00000000
Si       2.71502789       2.71524978       0.00000000       0.00000000
