10
Lattice="16.28999089631971 0.0 0.0 0.0 16.28999089631971 0.0 0.0 0.0 34.49183129400761" Properties=species:S:1:pos:R:3:initial_magmoms:R:1 pbc="T T T"
Si      -1.35794417       1.35664749      -1.35521930       0.00000000
Si       1.36003581      -1.35654975      -1.35604711       0.00000000
Si      -1.33926769      -1.35941679       1.37829435       0.00000000
Si       1.36865322       1.35078309       1.36936096       0.00000000
Si      -2.60362272       0.08280207       2.76772957       0.00000000
Si       0.00011403       2.71446786      -2.71409474       0.00000000
Si      -2.71446750       0.00029322      -2.71440516       0.00000000
Si       2.71878471       2.71026504       0.00227646       0.00000000
Si       0.00063531      -2.71515204      -2.71399126       0.00000000
Si       2.71554300       0.00001629      -2.71409474       0.00000000
