10
Lattice="16.28999089631971 0.0 0.0 0.0 16.28999089631971 0.0 0.0 0.0 34.49183129400761" Properties=species:S:1:pos:R:3:initial_magmoms:R:1 pbc="T T T"
Si      -2.28078180       0.29522367       0.47050333       0.00000000
Si       0.55482111       1.79838342      -1.71017493       0.00000000
Si       0.67495986       1.00994742       2.26621806       0.00000000
Si      -2.18847207      -0.94776849      -1.67575207       0.00000000
Si       1.78380387       0.32021253      -3.07412067       0.00000000
Si       3.03834564      -1.19744532      -1.64053589       0.00000000
Si       2.28854952      -2.89298997      -0.06294763       0.00000000
Si       2.66747121       2.05550478       1.61290792       0.00000000
Si       1.70424351       3.32457723      -0.26403512       0.00000000
Si      -2.43744731      -0.35015355       2.89848817       0.00000000
