10
Lattice="16.28999089631971 0.0 0.0 0.0 16.28999089631971 0.0 0.0 0.0 34.49183129400761" Properties=species:S:1:pos:R:3:initial_magmoms:R:1 pbc="T T T"
Si       0.70907112      -1.32657615      -1.75967074       0.00000000
Si       0.57713841       2.01401415      -1.02820207       0.00000000
Si      -2.34110825       0.29106972      -0.00255240       0.00000000
Si       1.48991598      -0.21789504       1.90522635       0.00000000
Si      -2.65486994      -2.03015754       1.09597855       0.00000000
Si       3.01852071      -1.11949767      -1.52002136       0.00000000
Si      -2.33657798       2.33276058       1.47680307       0.00000000
Si       0.15223005      -3.54646332      -1.09135664       0.00000000
Si       2.25774513      -2.45420253       1.83665655       0.00000000
Si      -0.86097700       3.73073580      -0.10882179       0.00000000
