10
Lattice="16.28999089631971 0.0 0.0 0.0 16.28999089631971 0.0 0.0 0.0 34.49183129400761" Properties=species:S:1:pos:R:3:initial_magmoms:R:1 pbc="T T T"
Si      -1.47204259       0.27815175      -1.73483661       0.00000000
Si       0.32601177      -2.05053633       1.08404437       0.00000000
Si      -1.25500278       1.35422028       1.54747688       0.00000000
Si       2.22995439       0.37310616      -0.91631050       0.00000000
Si       0.15297939      -2.17738656      -2.26438999       0.00000000
Si      -1.81752580      -2.60884350       1.91364236       0.00000000
Si      -0.35513829       1.53020115      -3.37668319       0.00000000
Si      -3.63645647      -0.02720430      -0.86053718       0.00000000
Si      -0.18269235       3.44267973       1.49311772       0.00000000
Si       2.18510802      -1.71621666       2.54691274       0.00000000
