10
Lattice="16.28999089631971 0.0 0.0 0.0 16.28999089631971 0.0 0.0 0.0 34.49183129400761" Properties=species:S:1:pos:R:3:initial_magmoms:R:1 pbc="T T T"
Si       2.06742906       0.45271539       0.99884950       0.00000000
Si      -1.27753348       1.35490446       1.45541813       0.00000000
Si      -0.07844124       0.79423524      -2.23438208       0.00000000
Si      -0.64966149      -2.26747026       0.28341954       0.00000000
Si      -2.59889750      -2.01440511       1.56258431       0.00000000
Si      -3.34116764       0.20041587       1.52205638       0.00000000
Si       1.82604384      -0.27202671       3.19439376       0.00000000
Si       0.04450428       1.25819073       3.50754527       0.00000000
Si      -0.64096426      -3.16882854      -1.86821659       0.00000000
Si       0.99386919       2.88269469      -2.28874124       0.00000000
