10
Lattice="16.2900001489832 0.0 0.0 0.0 16.2900001489832 0.0 0.0 0.0 29.27633928601476" Properties=species:S:1:pos:R:3:initial_magmoms:R:1 pbc="T T T"
Si      -2.26506425      -0.35146490       0.36068450       0.00000000
Si       0.96643684      -2.10491237       0.25119099       0.00000000
Si       0.42564141       0.85708207      -2.14481389       0.00000000
Si       0.82992664       1.43317792       1.72115599       0.00000000
Si      -0.46690398       2.75040363      -1.03225445       0.00000000
Si       1.01788066      -1.93774439       2.62523862       0.00000000
Si       3.05328360      -1.50429192      -0.97311624       0.00000000
Si       2.77825953       0.53020692      -2.30712192       0.00000000
Si      -1.05669973       2.81590572       2.17921359       0.00000000
Si      -3.18127739      -0.62795507      -1.81161988       0.00000000
