10
Lattice="16.2900001489832 0.0 0.0 0.0 16.2900001489832 0.0 0.0 0.0 29.27633928601476" Properties=species:S:1:pos:R:3:initial_magmoms:R:1 pbc="T T T"
H       -0.47967534       1.29855736       1.35821721       0.00000000
Si       0.22142997       1.82011430      -1.46639328       0.00000000
Si       1.86155443      -0.41852268       1.41322745       0.00000000
Si      -1.01147869      -1.87129259      -1.20135458       0.00000000
H       -0.52852905      -0.85221136       2.52013656       0.00000000
H        1.86292605      -1.65396607      -1.49631370       0.00000000
H       -0.08811261      -0.49651920       3.06666726       0.00000000
H        2.36167535       2.33266286       0.60063338       0.00000000
Si       2.83768545      -0.57072016      -1.99895917       0.00000000
Si      -0.79063516       2.45317628       2.40396805       0.00000000
