10
Lattice="16.2900001489832 0.0 0.0 0.0 16.2900001489832 0.0 0.0 0.0 29.27633928601476" Properties=species:S:1:pos:R:3:initial_magmoms:R:1 pbc="T T T"
Si      -2.04607940      -0.60343048      -1.02186135       0.00000000
Si      -0.17111179       0.91033408       2.18799649       0.00000000
Si       1.39340752      -1.94917997      -0.28371700       0.00000000
Si       0.80113569       1.97278418      -1.15495158       0.00000000
H        1.10623110      -0.72394390      -2.82519602       0.00000000
H       -1.73511959      -1.75804940      -2.06761219       0.00000000
Si       1.89303811       2.03869352       2.14545797       0.00000000
Si      -0.34269762       1.95494663      -3.13906765       0.00000000
Si      -2.45618016       1.19004967      -2.53389644       0.00000000
Si      -0.64943669      -2.86414041       2.31025449       0.00000000
