10
Lattice="16.2900001489832 0.0 0.0 0.0 16.2900001489832 0.0 0.0 0.0 29.27633928601476" Properties=species:S:1:pos:R:3:initial_magmoms:R:1 pbc="T T T"
Si       1.44099224       1.24690177       1.37663203       0.00000000
Si      -1.23888709       1.41879385      -1.40687448       0.00000000
Si      -1.83301598      -0.79851952       1.32700863       0.00000000
Si       1.43356888      -1.37638284      -1.35195207       0.00000000
Si      -2.59040324      -2.68675859       0.04335826       0.00000000
Si      -2.62614350      -0.00109143      -2.72006468       0.00000000
Si      -2.68302818       2.69495246      -0.01112501       0.00000000
Si       2.82453942       2.56935656      -0.03849839       0.00000000
Si       0.22494861       2.17308602       3.17785880       0.00000000
H        1.86644469      -1.30099435       3.14793838       0.00000000
