10
Lattice="16.2900001489832 0.0 0.0 0.0 16.2900001489832 0.0 0.0 0.0 29.27633928601476" Properties=species:S:1:pos:R:3:initial_magmoms:R:1 pbc="T T T"
Si      -1.33519357       1.35456238      -1.42136627       0.00000000
Si       1.31942485      -1.38062638      -1.41609653       0.00000000
Si      -1.41110497      -1.40915017       1.29568295       0.00000000
Si       1.43312905       1.38605095       1.34984418       0.00000000
Si      -2.70500339       2.66559788       0.03937668       0.00000000
Si       2.70371648       0.07897392      -2.66612303       0.00000000
Si      -0.01949913      -2.73095336       2.65205575       0.00000000
Si       2.71256195      -2.72911259      -0.04452931       0.00000000
Si       2.75141361      -0.01148445       2.71429724       0.00000000
Si      -2.70787043      -0.09229914       2.75742129       0.00000000
