10
Lattice="16.2900001489832 0.0 0.0 0.0 16.2900001489832 0.0 0.0 0.0 29.27633928601476" Properties=species:S:1:pos:R:3:initial_magmoms:R:1 pbc="T T T"
Si      -2.23018247       0.40970979      -0.69783082       0.00000000
Si       0.30758778       0.61703263       2.27114130       0.00000000
Si       1.28396152       1.59503536      -1.23461250       0.00000000
Si       0.49591647      -2.30617532       0.49983494       0.00000000
H        3.24788394       0.00575037      -0.34821278       0.00000000
Si       0.82512109      -1.71587459       2.80985522       0.00000000
Si      -2.05105763       2.70226667      -1.22193585       0.00000000
Si       1.08571222      -2.37167741      -2.71163310       0.00000000
Si      -2.87296959      -1.28502037      -2.20529881       0.00000000
Si       2.75815767       2.68763825       0.17035902       0.00000000
