10
Lattice="16.2900001489832 0.0 0.0 0.0 16.2900001489832 0.0 0.0 0.0 29.27633928601476" Properties=species:S:1:pos:R:3:initial_magmoms:R:1 pbc="T T T"
Si       0.64278712       1.69473017       1.50746799       0.00000000
Si      -0.52619958      -1.74335582       1.52269168       0.00000000
Si       1.77766581      -0.75298897      -1.39173862       0.00000000
Si      -1.62484606       0.90370405      -1.56637198       0.00000000
Si       1.83406342       1.10504845      -2.83825326       0.00000000
Si      -0.14397102       2.48604950      -2.58363694       0.00000000
Si      -1.27037566       1.91760995       2.90213424       0.00000000
Si      -1.90998623      -3.17180964       0.26266732       0.00000000
Si       2.87296959       1.28502037       2.20529881       0.00000000
Si       1.51687920      -2.55290366       2.45748520       0.00000000
