10
Lattice="16.2900001489832 0.0 0.0 0.0 16.2900001489832 0.0 0.0 0.0 29.27633928601476" Properties=species:S:1:pos:R:3:initial_magmoms:R:1 pbc="T T T"
Si      -1.80380801       1.35136954      -0.65177914       0.00000000
Si      -0.74927485      -1.06383475       1.99137660       0.00000000
Si       0.15351696      -2.18076187      -1.03594327       0.00000000
Si       2.07710534       1.27814599       0.03126713       0.00000000
Si       0.04833243      -3.18430407       1.17696739       0.00000000
Si       0.42130827       0.11148876       3.60482493       0.00000000
Si      -1.47843154       1.63769887      -2.95632474       0.00000000
Si       3.62217927      -0.11399742       1.17365917       0.00000000
Si      -3.13377249      -0.77678866       2.10189478       0.00000000
Si       2.24577200      -2.39027733      -2.05212500       0.00000000
