10
Lattice="16.2900001489832 0.0 0.0 0.0 16.2900001489832 0.0 0.0 0.0 29.27633928601476" Properties=species:S:1:pos:R:3:initial_magmoms:R:1 pbc="T T T"
Si       2.04436244      -0.87400738       0.79614077       0.00000000
Si      -1.91143604      -1.39844764      -0.01130067       0.00000000
Si       0.67354264       1.27783648      -1.92108411       0.00000000
Si      -0.42152004       1.65912023       1.75198397       0.00000000
Si       1.36021501       2.90646183      -0.34300159       0.00000000
Si       3.11608155       1.25685496       0.47009018       0.00000000
Si      -2.23681250      -1.68477698       2.29324493       0.00000000
Si      -2.08937171       0.52733988       3.07208339       0.00000000
Si       1.64410085      -1.75800053       2.97629120       0.00000000
Si      -3.78781599      -0.14154381      -0.64100545       0.00000000
