10
Lattice="16.2900001489832 0.0 0.0 0.0 16.2900001489832 0.0 0.0 0.0 29.27633928601476" Properties=species:S:1:pos:R:3:initial_magmoms:R:1 pbc="T T T"
H        1.48980196       0.00083079      -0.18968140       0.00000000
Si      -0.13828581      -1.06396507       2.09469280       0.00000000
Si      -0.40482279       2.24536638      -0.69765517       0.00000000
Si      -0.27290637      -1.14800518      -2.07938127       0.00000000
Si       1.55805706       2.10616719      -2.04448388       0.00000000
Si       0.20240325       0.70670908      -3.39096127       0.00000000
H        2.67401981      -1.40480074      -1.70748394       0.00000000
H       -2.26156678       1.95564710       1.86100906       0.00000000
Si      -1.52304985      -2.91931464       1.83852483       0.00000000
Si       1.72656083      -2.22583304      -2.52455729       0.00000000
