10
Lattice="16.2900001489832 0.0 0.0 0.0 16.2900001489832 0.0 0.0 0.0 29.27633928601476" Properties=species:S:1:pos:R:3:initial_magmoms:R:1 pbc="T T T"
Si      -1.32760243      -1.34673341      -1.37906196       0.00000000
Si      -1.34943103       1.31637211       1.41442778       0.00000000
Si       1.42372972      -1.23110699       1.44106925       0.00000000
Si       1.38798946       1.45456018      -1.32235369       0.00000000
Si       2.18111699       0.65713209       2.72471962       0.00000000
Si       0.28598724       2.43845990       2.69072979       0.00000000
Si      -2.59188563      -2.65758972       0.12738135       0.00000000
Si       0.12272886      -2.69890116      -2.63978896       0.00000000
Si      -2.65597049       2.70273257      -0.02459213       0.00000000
Si       2.83446003      -2.53424184       0.01220823       0.00000000
