10
Lattice="16.2900001489832 0.0 0.0 0.0 16.2900001489832 0.0 0.0 0.0 29.27633928601476" Properties=species:S:1:pos:R:3:initial_magmoms:R:1 pbc="T T T"
Si       2.26106831       0.62064901      -0.22715512       0.00000000
Si      -0.93867868       0.85159234      -2.06620692       0.00000000
Si      -1.44767602       0.66870451       1.86958703       0.00000000
Si      -0.22445991      -2.38063691      -0.76302923       0.00000000
Si      -3.04033305      -0.09673002      -1.54286308       0.00000000
Si      -3.33703911      -0.23703579       0.85232207       0.00000000
Si       2.99037162      -1.15090480      -1.77654682       0.00000000
H        0.32734755      -1.36596538       3.39014154       0.00000000
Si      -2.21618936      -2.29734614      -2.11155597       0.00000000
Si       0.08773794      -0.27204300      -3.91099689       0.00000000
