10
Lattice="16.2900001489832 0.0 0.0 0.0 16.2900001489832 0.0 0.0 0.0 29.27633928601476" Properties=species:S:1:pos:R:3:initial_magmoms:R:1 pbc="T T T"
Si       1.14150547      -1.25548497      -1.59728780       0.00000000
Si      -2.30130461      -0.63495163      -0.18892022       0.00000000
Si       1.26490222      -1.02794788       1.79147775       0.00000000
Si       0.63203572       1.83013265      -1.52816636       0.00000000
Si       2.38588229       0.96910840       2.45654835       0.00000000
Si      -0.10790496      -3.51460011       1.07877455       0.00000000
Si      -3.08747631       0.72637111      -1.99407002       0.00000000
Si       3.45993087      -1.07897468      -0.96152281       0.00000000
Si       0.53988318      -3.50663430      -1.22111611       0.00000000
Si      -1.26661267       2.03537036      -2.90784312       0.00000000
