10
Lattice="16.2900001489832 0.0 0.0 0.0 16.2900001489832 0.0 0.0 0.0 29.27633928601476" Properties=species:S:1:pos:R:3:initial_magmoms:R:1 pbc="T T T"
H        0.65714838      -1.25590200      -0.54369090       0.00000000
Si      -2.20100382      -0.47984802       0.42600001       0.00000000
Si       0.11143012       1.79558970      -1.43029556       0.00000000
Si       0.91621314       0.27649017       2.17230438       0.00000000
H       -0.60730424      -1.77237645      -2.73502489       0.00000000
Si       2.20399141       1.18134267      -2.19317840       0.00000000
Si       0.47220801      -1.93387551       2.79310915       0.00000000
Si      -1.76092947      -2.20551127       2.01544175       0.00000000
Si       3.18127739       0.62795507       1.81161988       0.00000000
Si      -3.15429463       1.29320610       1.54836703       0.00000000
