10
Lattice="16.2900001489832 0.0 0.0 0.0 16.2900001489832 0.0 0.0 0.0 29.27633928601476" Properties=species:S:1:pos:R:3:initial_magmoms:R:1 pbc="T T T"
Si       1.00901890      -1.47344680       1.42901442       0.00000000
Si      -1.25465581      -1.20617677      -1.55843809       0.00000000
Si      -1.64357956       1.27526266       1.12444564       0.00000000
Si       1.79159051       0.52442397      -1.55231934       0.00000000
Si       0.28163781      -0.44194770      -3.14896305       0.00000000
Si      -2.61677675       1.89679133      -0.94553793       0.00000000
Si       2.36262017       0.08781939       2.52459828       0.00000000
Si      -0.70216417       2.77583232      -2.17116260       0.00000000
Si       2.22596336      -2.98142841       0.13704254       0.00000000
Si      -0.47213307       2.77192272       2.53423019       0.00000000
