10
Lattice="16.2900001489832 0.0 0.0 0.0 16.2900001489832 0.0 0.0 0.0 29.27633928601476" Properties=species:S:1:pos:R:3:initial_magmoms:R:1 pbc="T T T"
Si       1.04151745       1.08960553       0.24094427       0.00000000
H       -0.96071905      -0.22302639       2.10330004       0.00000000
Si      -0.53879176      -1.64138042       1.81647975       0.00000000
Si      -1.51589854      -2.34491294      -0.22124130       0.00000000
Si       0.29203083       2.39301731      -1.58587002       0.00000000
Si       2.86306527      -0.32988879       0.44426845       0.00000000
Si      -2.47902851      -0.51779394      -1.50761437       0.00000000
Si      -1.12003525       0.92162305      -2.88597370       0.00000000
Si       1.82221571      -1.95836753       1.86838670       0.00000000
Si       0.78978808       2.08132445       2.39029600       0.00000000
