10
Lattice="16.2900001489832 0.0 0.0 0.0 16.2900001489832 0.0 0.0 0.0 29.27633928601476" Properties=species:S:1:pos:R:3:initial_magmoms:R:1 pbc="T T T"
Si      -1.16374132       0.93933028       0.29018708       0.00000000
H        0.81158410      -0.67963510       2.00299930       0.00000000
Si       0.98170057      -1.39906666      -2.71142816       0.00000000
Si      -1.40522428       1.24429537       2.63751302       0.00000000
Si      -3.12751713       0.24255810      -0.89316256       0.00000000
Si      -0.97492393       3.07718103      -0.68465647       0.00000000
Si       0.22503006      -3.10300068      -1.16405653       0.00000000
Si       2.83535109       0.00941562      -1.93317524       0.00000000
Si       1.70676848      -1.67187530       2.71917029       0.00000000
Si      -1.68186107      -3.37712880       0.32057592       0.00000000
