10
Lattice="16.2900001489832 0.0 0.0 0.0 16.2900001489832 0.0 0.0 0.0 29.27633928601476" Properties=species:S:1:pos:R:3:initial_magmoms:R:1 pbc="T T T"
Si      -1.35360127      -1.56126619      -1.09558385       0.00000000
Si       1.30414483      -1.38821752       1.40800748       0.00000000
Si      -1.42607548       1.31867551       1.36214317       0.00000000
Si       1.28847385       1.42420213      -1.49664745       0.00000000
Si      -2.36262017      -0.08781939      -2.52459828       0.00000000
Si       2.56223783       2.68838759       0.06080696       0.00000000
Si       2.66396888      -2.73426024       0.00596652       0.00000000
Si       2.61063542      -0.03458367       2.83200569       0.00000000
Si      -0.12150711       2.64754856       2.82454023       0.00000000
Si      -0.13665681      -3.06924780      -2.38755573       0.00000000
