10
Lattice="16.2900001489832 0.0 0.0 0.0 16.2900001489832 0.0 0.0 0.0 29.27633928601476" Properties=species:S:1:pos:R:3:initial_magmoms:R:1 pbc="T T T"
Si       1.28187640      -1.27744552      -1.54728381       0.00000000
Si      -1.31802391       1.46764756      -1.34226160       0.00000000
Si       1.84015100       0.99603577       1.17635259       0.00000000
Si      -1.31883841      -1.50527746       1.37780308       0.00000000
Si       2.66201408      -2.58523931      -0.16795836       0.00000000
Si      -2.66113442      -2.63002052      -0.23845578       0.00000000
Si       3.48506634      -0.76253491       1.15820126       0.00000000
H       -1.53987742       1.91474291       2.96469777       0.00000000
Si      -2.61107525       0.16356789      -2.87771777       0.00000000
Si      -2.65991267       2.83636596       0.07872408       0.00000000
