10
Lattice="16.2900001489832 0.0 0.0 0.0 16.2900001489832 0.0 0.0 0.0 29.27633928601476" Properties=species:S:1:pos:R:3:initial_magmoms:R:1 pbc="T T T"
Si      -0.72873316       0.80229880       1.05968638       0.00000000
Si      -0.96979258       0.18617841      -2.42124109       0.00000000
Si      -0.45225927      -2.14672880      -1.88252717       0.00000000
Si      -1.94981854      -0.83349415       2.30919468       0.00000000
Si      -1.92023264       2.47858868      -0.20935510       0.00000000
Si       0.83254933       1.89721487       2.42507043       0.00000000
Si       0.52025373       2.17728884      -2.40227002       0.00000000
Si       1.84611314      -2.66098781      -1.34360832       0.00000000
Si      -3.05939072       0.94667707      -1.53129893       0.00000000
Si       2.46871694       2.78583438      -1.09800910       0.00000000
