10
Lattice="16.2900001489832 0.0 0.0 0.0 16.2900001489832 0.0 0.0 0.0 29.27633928601476" Properties=species:S:1:pos:R:3:initial_magmoms:R:1 pbc="T T T"
Si      -0.12645927      -0.41125734      -1.50348640       0.00000000
H        1.26445262       0.51647445       2.19133400       0.00000000
Si       1.86714516       0.62663297      -2.40414371       0.00000000
Si      -2.27937827       0.34973001      -2.10394412       0.00000000
H        0.02461419       2.87898060      -1.36468728       0.00000000
H       -0.41580225       2.52328844      -1.91121798       0.00000000
Si       3.12119661       0.80619374      -0.36733023       0.00000000
Si       0.60730424       1.77237645       2.73502489       0.00000000
Si      -0.50759640      -2.73955448      -1.87886763       0.00000000
Si      -3.14799366       0.94943334       1.42312285       0.00000000
