10
Lattice="16.2900001489832 0.0 0.0 0.0 16.2900001489832 0.0 0.0 0.0 29.27633928601476" Properties=species:S:1:pos:R:3:initial_magmoms:R:1 pbc="T T T"
Si       2.05060151      -0.72775576       0.83335100       0.00000000
Si       0.75567682      -0.90336196      -2.02627399       0.00000000
Si      -2.00860589      -0.85836898       0.93690141       0.00000000
Si      -0.00467523       2.23195808       0.87082471       0.00000000
H        0.07814313      -2.52164315       1.81018533       0.00000000
H       -1.59387877      -1.67612699       2.13424513       0.00000000
H        2.15018228      -2.22444839       0.60704490       0.00000000
Si       1.64488277      -0.26383284       3.09723176       0.00000000
Si      -2.27855725       2.75981925       0.45103128       0.00000000
Si       0.31130190       1.66061891       3.21097034       0.00000000
