10
Lattice="16.2900001489832 0.0 0.0 0.0 16.2900001489832 0.0 0.0 0.0 29.27633928601476" Properties=species:S:1:pos:R:3:initial_magmoms:R:1 pbc="T T T"
Si       0.05639761       1.85803742      -1.44651465       0.00000000
Si      -0.42192729      -1.91643707      -1.32425665       0.00000000
Si       2.18101599      -0.33366807       0.88540433       0.00000000
Si      -1.77766581       0.75298897       1.39173862       0.00000000
Si       1.67063400      -2.53068410      -2.08713950       0.00000000
Si      -0.53335741      -3.71202677       0.10603890       0.00000000
Si       0.22750940       0.94770334      -3.63451114       0.00000000
Si      -3.40251188       1.65669302      -0.17463336       0.00000000
Si       3.07356139      -2.22698963      -0.22715512       0.00000000
Si      -2.30386540      -0.99036685       2.91443030       0.00000000
