10
Lattice="16.2900001489832 0.0 0.0 0.0 16.2900001489832 0.0 0.0 0.0 29.27633928601476" Properties=species:S:1:pos:R:3:initial_magmoms:R:1 pbc="T T T"
Si       1.99946720      -1.07782786      -0.44517602       0.00000000
Si       0.47530962       1.85471426      -1.31158000       0.00000000
Si      -1.80381778      -1.26939826      -0.79394505       0.00000000
Si       0.27290637       1.14800518       2.07938127       0.00000000
H        1.76270834       1.14883597       1.88969987       0.00000000
H        2.94692619      -0.25679556       0.37189734       0.00000000
Si      -1.38596787       3.21381080      -0.65508737       0.00000000
Si       1.71574427      -3.06178698       0.72652164       0.00000000
Si      -0.13191642       3.39337156       1.38172611       0.00000000
Si      -0.32842269      -3.06833556       2.07607305       0.00000000
