10
Lattice="16.2900001489832 0.0 0.0 0.0 16.2900001489832 0.0 0.0 0.0 29.27633928601476" Properties=species:S:1:pos:R:3:initial_magmoms:R:1 pbc="T T T"
Si       1.38609982       1.37707516      -1.31682339       0.00000000
Si       1.36656811      -1.35879778       1.36875669       0.00000000
Si      -1.30991149       1.39084021       1.39203138       0.00000000
Si      -1.35645202      -1.37182978      -1.40440649       0.00000000
Si       2.71653671      -2.64676664      -0.07737736       0.00000000
Si      -2.58875795       2.78212026      -0.07980730       0.00000000
Si      -2.66233988      -0.02446758       2.75194662       0.00000000
Si      -2.70417260      -2.73074159      -0.07591355       0.00000000
Si      -2.62765847       0.01923849      -2.80683390       0.00000000
Si       2.75994957      -0.01817964       2.70844198       0.00000000
