10
Lattice="16.2900001489832 0.0 0.0 0.0 16.2900001489832 0.0 0.0 0.0 29.27633928601476" Properties=species:S:1:pos:R:3:initial_magmoms:R:1 pbc="T T T"
Si       0.53934561       1.82016317       1.36099846       0.00000000
Si      -0.33210423      -1.59386248       1.72455204       0.00000000
Si       1.91316278      -0.22287978      -1.39466625       0.00000000
Si      -1.88437835       0.77851540      -1.27258392       0.00000000
Si      -2.41157162      -0.56979163       2.27172682       0.00000000
Si       2.36133489       0.74494171       2.46424803       0.00000000
Si       2.09228762       2.06967710      -1.91877128       0.00000000
Si      -1.36754551       1.54603504       2.84563090       0.00000000
Si       1.27037566      -1.91760995      -2.90213424       0.00000000
Si       1.29601612       3.52409718      -0.18637318       0.00000000
