10
Lattice="16.2900001489832 0.0 0.0 0.0 16.2900001489832 0.0 0.0 0.0 29.27633928601476" Properties=species:S:1:pos:R:3:initial_magmoms:R:1 pbc="T T T"
Si       0.34000488      -2.08549469       1.10936832       0.00000000
Si      -1.99172945       0.08329077      -1.34852674       0.00000000
Si       2.12173994      -0.83815309      -0.98561724       0.00000000
Si       0.22445991       2.38063691       0.76302923       0.00000000
H       -1.81219736      -0.67212541       2.70484099       0.00000000
Si      -0.71421877       3.23222925      -1.30317769       0.00000000
Si       3.21483153       1.22973211      -1.01351759       0.00000000
Si      -2.81587314       2.28390689      -0.77983385       0.00000000
Si       2.06353577      -1.52862103       2.67696991       0.00000000
Si      -1.18975645       0.25387965      -3.56243279       0.00000000
