10
Lattice="16.2900001489832 0.0 0.0 0.0 16.2900001489832 0.0 0.0 0.0 29.27633928601476" Properties=species:S:1:pos:R:3:initial_magmoms:R:1 pbc="T T T"
H        1.03682593       0.77978602      -0.79046116       0.00000000
Si       1.46091979      -1.22070745       1.27285121       0.00000000
Si      -1.21694446       1.50798160       1.29197188       0.00000000
Si      -1.29849220      -1.32328558      -1.42930016       0.00000000
H        2.30853737      -2.03856971       0.31715058       0.00000000
Si      -0.30305916      -0.75715921      -3.51702519       0.00000000
Si       0.08562024      -2.56922950       2.56845130       0.00000000
Si       1.84731860       0.29602188      -3.11608572       0.00000000
Si       2.80062570       0.33498756       2.39352225       0.00000000
Si      -3.50393016      -0.53167302      -1.08585942       0.00000000
