10
Lattice="16.2900001489832 0.0 0.0 0.0 16.2900001489832 0.0 0.0 0.0 29.27633928601476" Properties=species:S:1:pos:R:3:initial_magmoms:R:1 pbc="T T T"
Si       1.26428320       1.31085631      -1.50644331       0.00000000
Si      -1.46948833       1.40304142       1.23920889       0.00000000
Si      -1.39906666      -1.36552555      -1.36495077       0.00000000
Si       1.42724836      -1.35892810       1.36849320       0.00000000
Si       2.59188563       2.65758972      -0.12738135       0.00000000
Si      -2.72442107      -0.02322954       2.64379982       0.00000000
Si       0.01312974      -2.58880682       2.80599074       0.00000000
Si       2.67079439      -2.77454541      -0.04854017       0.00000000
Si       2.71461449      -0.04131144      -2.76717031       0.00000000
Si      -2.79564096       2.69194533      -0.21327813       0.00000000
