10
Lattice="16.2900001489832 0.0 0.0 0.0 16.2900001489832 0.0 0.0 0.0 29.27633928601476" Properties=species:S:1:pos:R:3:initial_magmoms:R:1 pbc="T T T"
Si       1.24354603      -1.41561730      -1.41703337       0.00000000
Si      -1.41411862      -1.22987872       1.43749754       0.00000000
Si       1.76868677       0.96863599       1.28265498       0.00000000
Si      -1.42724836       1.35892810      -1.36849320       0.00000000
Si      -2.48145572       0.46012734       2.73036995       0.00000000
Si       2.62197326      -2.68861565       0.02675857       0.00000000
Si       3.50622705      -0.75318445       1.21921315       0.00000000
Si       2.58836699       2.78541084      -0.05480531       0.00000000
Si       2.64301994      -0.01366731      -2.74805286       0.00000000
Si      -0.14983542      -2.75623545      -2.75671866       0.00000000
