10
Lattice="16.2900001489832 0.0 0.0 0.0 16.2900001489832 0.0 0.0 0.0 29.27633928601476" Properties=species:S:1:pos:R:3:initial_magmoms:R:1 pbc="T T T"
H        0.28766511       1.46598598       0.16298138       0.00000000
Si      -1.88447772      -0.43968339       1.29963525       0.00000000
Si       1.84145420      -1.00018972       1.08738179       0.00000000
Si      -0.90834670      -0.59188087      -2.11255137       0.00000000
H       -1.38435679       2.31150215       0.48704118       0.00000000
H       -1.88310610      -1.67512678      -1.60990590       0.00000000
H        2.35970426       1.76318075      -1.04015906       0.00000000
Si      -1.09718038       1.08626608       3.02852019       0.00000000
Si       3.10568853      -1.77614759      -0.72195453       0.00000000
Si      -1.79908391       3.12926016      -0.71030254       0.00000000
