10
Lattice="16.2900001489832 0.0 0.0 0.0 16.2900001489832 0.0 0.0 0.0 29.27633928601476" Properties=species:S:1:pos:R:3:initial_magmoms:R:1 pbc="T T T"
Si      -1.32349735       1.32343219      -1.47008210       0.00000000
Si       1.43018056      -1.29696420      -1.39191428       0.00000000
Si       1.38725641       1.41988528       1.31319020       0.00000000
Si      -1.38798946      -1.45456018       1.32235369       0.00000000
Si       2.62614350       0.00109143       2.72006468       0.00000000
Si      -2.71520093       2.64715760      -0.09429909       0.00000000
Si      -0.05688468       2.69604389       2.70893967       0.00000000
Si       0.11725542      -2.76149712      -2.65700052       0.00000000
Si       0.03574026      -2.68566716       2.76342294       0.00000000
Si      -2.73742050      -0.13818807       2.73678147       0.00000000
