10
Lattice="16.2900001489832 0.0 0.0 0.0 16.2900001489832 0.0 0.0 0.0 29.27633928601476" Properties=species:S:1:pos:R:3:initial_magmoms:R:1 pbc="T T T"
Si       1.17058312       1.17532351       1.61344833       0.00000000
Si       0.74927485       1.06383475      -1.99137660       0.00000000
Si      -2.38449764       0.28704609       0.11051818       0.00000000
Si       0.79760728      -2.12046932      -0.81440921       0.00000000
Si       0.90279181      -1.11692712      -3.02731986       0.00000000
Si      -1.16383906      -3.31636710      -0.55180044       0.00000000
Si       3.37602108       0.38371095       1.27000760       0.00000000
Si      -2.92444599      -1.90977446      -1.01275640       0.00000000
Si      -1.05453316       2.41520429      -2.64315574       0.00000000
Si       1.19389411       3.48224817       1.00382712       0.00000000
