10
Lattice="16.2900001489832 0.0 0.0 0.0 16.2900001489832 0.0 0.0 0.0 29.27633928601476" Properties=species:S:1:pos:R:3:initial_magmoms:R:1 pbc="T T T"
Si      -1.98091289       1.01506249       0.68890154       0.00000000
Si      -0.29846538      -1.04910859      -2.07071548       0.00000000
Si       0.33050781      -1.49758858       1.78755472       0.00000000
Si       1.62590491       1.69803704      -0.45545201       0.00000000
Si       1.90892738      -1.89625376      -2.07153522       0.00000000
Si      -1.37929060       3.26621182       0.31272986       0.00000000
Si       3.39768678      -1.39124746      -0.23037551       0.00000000
Si       0.62038837      -0.06033816       3.63811213       0.00000000
Si       0.93913480       3.44272212       0.94849484       0.00000000
Si       1.16111863       2.23319938      -2.71640514       0.00000000
