10
Lattice="16.2900001489832 0.0 0.0 0.0 16.2900001489832 0.0 0.0 0.0 29.27633928601476" Properties=species:S:1:pos:R:3:initial_magmoms:R:1 pbc="T T T"
Si       0.21137904      -0.95808007       1.13179400       0.00000000
H       -2.05244228       0.16239501      -0.98825211       0.00000000
Si       0.25374933       2.28877760      -1.94588117       0.00000000
Si       2.61267167      -1.32300865       0.95514057       0.00000000
Si      -0.81503758       0.16555527       2.97658397       0.00000000
Si      -1.29057526      -2.81279433       0.71732887       0.00000000
H        0.90160264      -2.89414659      -0.97220868       0.00000000
Si      -0.78574816       2.41999355       2.16510240       0.00000000
Si      -1.16025526       3.23690448      -0.15132940       0.00000000
Si       2.15132258       2.67312386      -0.57068368       0.00000000
