10
Lattice="16.2900001489832 0.0 0.0 0.0 16.2900001489832 0.0 0.0 0.0 29.27633928601476" Properties=species:S:1:pos:R:3:initial_magmoms:R:1 pbc="T T T"
Si      -1.34534224       0.66521845      -0.19931332       0.00000000
H       -0.85561597      -2.01666944      -0.71788512       0.00000000
Si       0.48435057      -2.54514962      -0.27537325       0.00000000
Si       2.15220224      -1.41336928      -1.59547266       0.00000000
Si      -2.30586581       0.58572325       1.92044003       0.00000000
H        2.36400482       1.68679694       1.44832978       0.00000000
Si      -2.81953839      -0.42738444      -1.60428484       0.00000000
Si      -1.30038184       2.81572653      -1.08948969       0.00000000
Si       1.81219736       0.67212541      -2.70484099       0.00000000
Si       0.55653157      -2.63528219       2.09603951       0.00000000
