10
Lattice="16.2900001489832 0.0 0.0 0.0 16.2900001489832 0.0 0.0 0.0 29.27633928601476" Properties=species:S:1:pos:R:3:initial_magmoms:R:1 pbc="T T T"
Si       1.85007161       1.48348144      -0.42717107       0.00000000
Si      -0.26697681      -1.14663682      -2.10400268       0.00000000
Si       0.50134104      -0.51393321       2.31110350       0.00000000
Si      -2.40129263       0.36492858       0.17665343       0.00000000
H       -1.71106904      -1.57113793      -1.92734924       0.00000000
H       -2.61267167       1.32300865      -0.95514057       0.00000000
Si      -0.59175055      -2.58181841       2.33900385       0.00000000
Si       2.13995216       2.92073187       1.42338634       0.00000000
Si       1.51956379       2.98107003      -2.21472579       0.00000000
Si       3.99248356       0.43945533      -0.58810310       0.00000000
