10
Lattice="16.2900001489832 0.0 0.0 0.0 16.2900001489832 0.0 0.0 0.0 29.27633928601476" Properties=species:S:1:pos:R:3:initial_magmoms:R:1 pbc="T T T"
Si      -1.37842723       1.27299835      -1.44379195       0.00000000
Si       1.33908688      -1.32300865      -1.47265842       0.00000000
Si      -0.94809430      -1.85298752       1.20826380       0.00000000
Si       0.88425379       1.93543121       1.19245458       0.00000000
H        2.69371442       0.00109143       1.05017157       0.00000000
Si      -2.62197326       2.68861565      -0.02675857       0.00000000
Si       2.58455513      -2.76392433      -0.04780826       0.00000000
Si       2.66957264       2.74066221      -0.16889520       0.00000000
Si       0.02104668       2.67494834      -2.77481144       0.00000000
Si       0.69682105      -3.61155819       1.19011247       0.00000000
