10
Lattice="16.2900001489832 0.0 0.0 0.0 16.2900001489832 0.0 0.0 0.0 29.27633928601476" Properties=species:S:1:pos:R:3:initial_magmoms:R:1 pbc="T T T"
H       -1.04151745      -1.08960553      -0.24094427       0.00000000
Si       1.82154782      -1.41949432       0.20332418       0.00000000
Si      -0.74948662       1.30341178      -1.82681430       0.00000000
Si      -0.25172937       0.99171892       2.14935173       0.00000000
H       -2.00223650      -1.31263192       1.86235577       0.00000000
Si      -1.58030920      -2.73098594       1.57553548       0.00000000
Si      -1.81682372       2.99341785      -0.53394188       0.00000000
Si       0.78069826      -3.04797306       1.62744242       0.00000000
Si       1.53044551       2.58551624       1.99392364       0.00000000
Si       2.33851097      -2.00831267      -2.02928946       0.00000000
