10
Lattice="16.2900001489832 0.0 0.0 0.0 16.2900001489832 0.0 0.0 0.0 29.27633928601476" Properties=species:S:1:pos:R:3:initial_magmoms:R:1 pbc="T T T"
Si      -0.09619245       1.90449650       1.37341163       0.00000000
Si       1.54507393      -1.39214341       1.14239204       0.00000000
Si       0.40026159       0.88399315      -2.18015043       0.00000000
Si      -2.07710534      -1.27814599      -0.03126713       0.00000000
Si      -1.63248607       1.14026743       2.96393659       0.00000000
Si       1.84787246      -3.03313613      -0.52261193       0.00000000
Si       0.54964089      -1.95826979       3.23011707       0.00000000
Si      -1.64410085       1.75800053      -2.97629120       0.00000000
Si       1.69251473      -0.57184417      -3.50645643       0.00000000
Si      -3.88091335       0.07322355      -0.68304627       0.00000000
