10
Lattice="16.2900001489832 0.0 0.0 0.0 16.2900001489832 0.0 0.0 0.0 29.27633928601476" Properties=species:S:1:pos:R:3:initial_magmoms:R:1 pbc="T T T"
Si       0.64364234      -1.63562190      -1.57088054       0.00000000
Si      -2.04307879       0.80954785      -0.93479351       0.00000000
Si       1.85200686       1.53174871       0.24764855       0.00000000
Si      -0.88746618      -0.53297622       2.20286887       0.00000000
Si      -2.91713503       0.69089149       1.28965202       0.00000000
Si       2.90870659      -1.28415700      -1.93156504       0.00000000
Si       3.73863323       0.14902092      -0.21040905       0.00000000
Si      -1.51687920       2.55290366      -2.45748520       0.00000000
Si       0.60586420       0.72891235       3.77913626       0.00000000
Si       0.19963721      -3.84598759      -0.95007576       0.00000000
