10
Lattice="16.2900001489832 0.0 0.0 0.0 16.2900001489832 0.0 0.0 0.0 29.27633928601476" Properties=species:S:1:pos:R:3:initial_magmoms:R:1 pbc="T T T"
H       -0.89518438       0.99224020      -0.71617099       0.00000000
Si       1.47940894      -0.97443523      -1.45803342       0.00000000
Si       1.61829586       1.15478182       1.20971444       0.00000000
Si      -1.29938815      -1.56929716       1.16522612       0.00000000
Si       0.13742244       2.52322328       2.46108765       0.00000000
H       -1.70676848       1.67187530      -2.71917029       0.00000000
Si      -2.66089007      -0.22050144       2.52995731       0.00000000
Si       0.34025086      -2.50634684      -2.77997725       0.00000000
Si       2.67090842      -2.65072511      -0.18899194       0.00000000
Si      -2.57315213      -2.83348263      -0.39222829       0.00000000
