10
Lattice="16.2900001489832 0.0 0.0 0.0 16.2900001489832 0.0 0.0 0.0 29.27633928601476" Properties=species:S:1:pos:R:3:initial_magmoms:R:1 pbc="T T T"
Si       1.38954353       1.37262799      -1.31304967       0.00000000
Si      -1.36968928       1.39466836       1.31474184       0.00000000
Si       1.35026834      -1.39994632       1.34846819       0.00000000
Si      -1.38035923      -1.31072599      -1.42386354       0.00000000
Si      -2.72363264      -2.63570573       0.00778751       0.00000000
Si       2.72007816      -2.71098182      -0.11227476       0.00000000
Si      -0.00319447       2.75257020       2.68341071       0.00000000
Si       2.72535612      -0.06406857       2.72694462       0.00000000
Si      -2.69484821       0.07900650       2.75727491       0.00000000
Si      -2.70043568       2.79357213      -0.06929710       0.00000000
