10
Lattice="16.2900001489832 0.0 0.0 0.0 16.2900001489832 0.0 0.0 0.0 29.27633928601476" Properties=species:S:1:pos:R:3:initial_magmoms:R:1 pbc="T T T"
Si      -1.36599796       1.33310845       1.35280109       0.00000000
Si      -1.35428545      -1.24629904      -1.47145809       0.00000000
Si       1.34426710       1.43110909      -1.33549877       0.00000000
Si       1.28775709      -1.23857758       1.57822890       0.00000000
Si       0.31674276       2.42131304       2.59584518       0.00000000
Si       1.74952973       0.53403507       3.26211610       0.00000000
Si      -0.24995376      -2.73357606       2.58138266       0.00000000
Si      -3.00283510      -2.29294784      -0.15697973       0.00000000
Si       2.72170064      -2.65015496       0.21383438       0.00000000
Si       2.72813519       0.06862977      -2.67544754       0.00000000
