10
Lattice="16.2900001489832 0.0 0.0 0.0 16.2900001489832 0.0 0.0 0.0 29.27633928601476" Properties=species:S:1:pos:R:3:initial_magmoms:R:1 pbc="T T T"
Si       1.86258233      -1.48181986       0.08452079       0.00000000
Si      -0.52849647       0.42586947       2.30835152       0.00000000
Si      -1.67519846      -1.34623819      -1.10822655       0.00000000
Si       0.41692626       2.13786704      -1.12921768       0.00000000
H       -2.44902233       0.04877226      -1.63994342       0.00000000
Si       2.38070207       2.83463922       0.05413195       0.00000000
Si       0.81855622      -3.59764653      -0.48938329       0.00000000
Si      -2.23370111       2.10716039       2.45207405       0.00000000
Si      -2.84529288       2.76091068       0.31401802       0.00000000
Si      -3.70186995       1.05808438      -1.08015054       0.00000000
