10
Lattice="16.2900001489832 0.0 0.0 0.0 16.2900001489832 0.0 0.0 0.0 29.27633928601476" Properties=species:S:1:pos:R:3:initial_magmoms:R:1 pbc="T T T"
Si      -1.29225313       1.45583731       1.32630600       0.00000000
Si      -1.12098007      -1.99705628      -0.66507060       0.00000000
Si       1.49320657      -1.07691562       1.56531803       0.00000000
Si       0.73166536       1.50796531      -1.75218891       0.00000000
Si       1.77834674       2.99859807      -0.26372126       0.00000000
Si      -2.38588229      -0.96910840      -2.45654835       0.00000000
Si       0.89220331      -3.19306483      -1.29495104       0.00000000
Si      -0.22053402       3.58669965       1.00025541       0.00000000
Si      -1.52384806      -3.09657916       1.42306430       0.00000000
Si       2.44649738      -2.84996974       0.44295101       0.00000000
