10
Lattice="16.2900001489832 0.0 0.0 0.0 16.2900001489832 0.0 0.0 0.0 29.27633928601476" Properties=species:S:1:pos:R:3:initial_magmoms:R:1 pbc="T T T"
Si       2.18748638       0.92204659      -0.14523992       0.00000000
Si       0.04971708      -1.52920747       1.83108864       0.00000000
Si      -1.39340752       1.94917997       0.28371700       0.00000000
Si      -0.78729734      -1.52594947      -1.72888494       0.00000000
H       -0.28717641       1.22523607      -2.54147901       0.00000000
H       -2.73696438      -1.60394599      -0.07544513       0.00000000
H        1.38484549       0.37971990      -2.86553881       0.00000000
Si       1.09718038      -1.08626608      -3.02852019       0.00000000
Si      -2.04284421      -0.91496044       2.59397149       0.00000000
H       -3.12852711       0.19113057      -1.78389518       0.00000000
