10
Lattice="10.86 0.0 0.0 0.0 10.86 0.0 0.0 0.0 10.86" Properties=species:S:1:pos:R:3:initial_magmoms:R:1 pbc="T T T"
Si       0.84120474      -1.15467864      -1.77568602       0.00000000
Si      -1.75978698       0.89277888       1.19606610       0.00000000
Si       1.08840006      -1.83297252       1.11235722       0.00000000
Si      -0.26828544       2.23839804       2.46002892       0.00000000
Si      -0.27485574       2.38408494      -2.50131864       0.00000000
Si       2.44671456      -0.47660196       2.46002892       0.00000000
Si       1.05902376       3.43561530       0.93979182       0.00000000
Si      -2.98328544       2.23839804      -0.25497108       0.00000000
Si      -2.98328544      -0.47660196       2.46002892       0.00000000
Si       2.44671456      -3.19160196      -0.25497108       0.00000000
