10
Lattice="10.86 0.0 0.0 0.0 10.86 0.0 0.0 0.0 10.86" Properties=species:S:1:pos:R:3:initial_magmoms:R:1 pbc="T T T"
Si      -1.35750000      -1.35750000       1.35750000       0.00000000
Si       1.35750000       1.35750000       1.35750000       0.00000000
Si      -1.35750000       1.35750000      -1.35750000       0.00000000
Si       1.35750000      -1.35750000      -1.35750000       0.00000000
Si      -2.45945334       2.57875044       0.04617672       0.00000000
Si       2.57973870       2.63452740       0.05693898       0.00000000
Si       2.81776818      -0.00920928      -2.43105444       0.00000000
Si      -2.79944736      -2.53127052       0.19034322       0.00000000
Si       2.58099846       0.01188084       2.80853718       0.00000000
Si       0.00000000       2.71500000      -2.71500000       0.00000000
