10
Lattice="10.86 0.0 0.0 0.0 10.86 0.0 0.0 0.0 10.86" Properties=species:S:1:pos:R:3:initial_magmoms:R:1 pbc="T T T"
Si      -1.39027548       0.93925968      -1.29813924       0.00000000
Si       1.32472452      -1.77574032      -1.29813924       0.00000000
Si      -0.28078530       0.26118300       2.61114582       0.00000000
Si      -1.39027548      -1.77574032       1.41686076       0.00000000
Si      -0.03277548       2.29675968      -2.65563924       0.00000000
Si      -2.64500730       2.28755040       0.34330632       0.00000000
Si       2.64311766       2.35896576       0.01718052       0.00000000
Si       2.68222452      -0.41824032      -2.65563924       0.00000000
Si      -2.74777548      -0.41824032      -2.65563924       0.00000000
Si       2.59777716      -0.23451084       2.96470398       0.00000000
