10
Lattice="10.86 0.0 0.0 0.0 10.86 0.0 0.0 0.0 10.86" Properties=species:S:1:pos:R:3:initial_magmoms:R:1 pbc="T T T"
Si      -1.31527632      -1.25013804       1.34636850       0.00000000
Si       1.39972368      -1.25013804      -1.36863150       0.00000000
Si       1.39972368       1.46486196       1.34636850       0.00000000
Si      -2.48380146       0.09876084      -2.56129842       0.00000000
Si      -2.67277632      -2.60763804      -0.01113150       0.00000000
Si       0.04222368      -2.60763804       2.70386850       0.00000000
Si       0.04222368      -2.60763804      -2.72613150       0.00000000
Si       2.75722368      -2.60763804      -0.01113150       0.00000000
Si       2.75722368       0.10736196       2.70386850       0.00000000
Si       0.01468272       2.74832934       2.73557970       0.00000000
