10
Lattice="10.86 0.0 0.0 0.0 10.86 0.0 0.0 0.0 10.86" Properties=species:S:1:pos:R:3:initial_magmoms:R:1 pbc="T T T"
Si      -1.32881874      -1.41645894       1.22114184       0.00000000
Si       1.20062730       1.68455976       1.16533230       0.00000000
Si      -1.32881874       1.29854106      -1.49385816       0.00000000
Si       1.38618126      -1.41645894      -1.49385816       0.00000000
Si       2.66838888       0.11578932       2.22812448       0.00000000
Si       1.25682780       3.12830988      -0.96924414       0.00000000
Si      -2.68631874      -0.05895894       2.57864184       0.00000000
Si      -0.18496752       2.53832952      -2.74054272       0.00000000
Si      -2.68631874       2.65604106      -0.13635816       0.00000000
Si       0.02868126      -2.77395894       2.57864184       0.00000000
