10
Lattice="10.86 0.0 0.0 0.0 10.86 0.0 0.0 0.0 10.86" Properties=species:S:1:pos:R:3:initial_magmoms:R:1 pbc="T T T"
Si       1.35750000       1.35750000       1.35750000       0.00000000
Si      -1.35750000       1.35750000      -1.35750000       0.00000000
Si       1.35750000      -1.35750000      -1.35750000       0.00000000
Si      -1.35750000      -1.35750000       1.35750000       0.00000000
Si       0.20409198      -2.56670670       2.61194946       0.00000000
Si       2.42488596       2.81120874       0.03979104       0.00000000
Si      -0.07529238       2.88974826       2.36448264       0.00000000
Si       2.68565628      -2.64443172       0.15125808       0.00000000
Si      -0.02094894       2.66590194      -2.71783446       0.00000000
Si       2.71500000       0.00000000       2.71500000       0.00000000
