10
Lattice="10.86 0.0 0.0 0.0 10.86 0.0 0.0 0.0 10.86" Properties=species:S:1:pos:R:3:initial_magmoms:R:1 pbc="T T T"
Si       1.43279238      -1.53224826      -1.00698264       0.00000000
Si      -1.46776158       1.56877044      -1.06279218       0.00000000
Si       1.43279238       1.18275174       1.70801736       0.00000000
Si      -1.28220762      -1.53224826       1.70801736       0.00000000
Si       2.50017834      -0.07853952      -2.32469160       0.00000000
Si      -2.66838888      -0.11578932      -2.22812448       0.00000000
Si       2.74355094       2.49747420       0.26483196       0.00000000
Si       0.07529238      -2.88974826      -2.36448264       0.00000000
Si      -2.63970762      -2.88974826       0.35051736       0.00000000
Si       0.07529238       2.54025174       3.06551736       0.00000000
