10
Lattice="10.86 0.0 0.0 0.0 10.86 0.0 0.0 0.0 10.86" Properties=species:S:1:pos:R:3:initial_magmoms:R:1 pbc="T T T"
Si      -1.48951416      -1.19114652       1.43064210       0.00000000
Si       1.22548584       1.52385348       1.43064210       0.00000000
Si       1.09613238      -2.07637770      -0.75974388       0.00000000
Si      -1.48951416       1.52385348      -1.28435790       0.00000000
Si      -0.34566294      -2.66635806      -2.53104246       0.00000000
Si       2.71892046       0.11698392      -2.67394920       0.00000000
Si      -2.84701416      -2.54864652       0.07314210       0.00000000
Si      -0.41144196      -2.40547914       2.96723436       0.00000000
Si       2.58298584       2.88135348       0.07314210       0.00000000
Si       2.78707782       0.31464678       2.68509156       0.00000000
