10
Lattice="10.86 0.0 0.0 0.0 10.86 0.0 0.0 0.0 10.86" Properties=species:S:1:pos:R:3:initial_magmoms:R:1 pbc="T T T"
Si      -1.20062730      -1.68455976      -1.16533230       0.00000000
Si       1.46776158      -1.56877044       1.06279218       0.00000000
Si      -1.45137384       1.11464868       1.59240180       0.00000000
Si       0.05620050       1.44375012      -2.13457644       0.00000000
Si      -2.52944604       2.32898130       0.05580954       0.00000000
Si       0.18555396       2.32898130       2.77080954       0.00000000
Si      -2.52944604      -0.38601870      -2.65919046       0.00000000
Si      -2.52944604      -0.38601870       2.77080954       0.00000000
Si      -1.03993188       3.52012782      -1.37483256       0.00000000
Si      -2.52944604      -3.10101870       0.05580954       0.00000000
