10
Lattice="10.86 0.0 0.0 0.0 10.86 0.0 0.0 0.0 10.86" Properties=species:S:1:pos:R:3:initial_magmoms:R:1 pbc="T T T"
Si      -1.48877568       1.22331384      -1.17152250       0.00000000
Si       1.22622432      -1.49168616      -1.17152250       0.00000000
Si       1.22622432       1.22331384       1.54347750       0.00000000
Si      -0.13127568       2.58081384      -2.52902250       0.00000000
Si       2.58372432      -0.13418616      -2.52902250       0.00000000
Si       2.58372432       2.58081384       0.18597750       0.00000000
Si      -2.84627568      -0.13418616      -2.52902250       0.00000000
Si      -0.13127568      -2.84918616      -2.52902250       0.00000000
Si       2.58372432      -2.84918616       0.18597750       0.00000000
Si       2.58372432      -0.13418616       2.90097750       0.00000000
