10
Lattice="10.86 0.0 0.0 0.0 10.86 0.0 0.0 0.0 10.86" Properties=species:S:1:pos:R:3:initial_magmoms:R:1 pbc="T T T"
Si       1.40722794      -1.45490334      -1.08096096       0.00000000
Si      -1.52780652       1.42167174      -1.15309308       0.00000000
Si       1.18719348       1.42167174       1.56190692       0.00000000
Si      -1.52780652      -1.29332826       1.56190692       0.00000000
Si       0.69494226      -3.03223146       0.71999628       0.00000000
Si       2.46587160       0.26213868      -2.54421564       0.00000000
Si      -0.24197166      -2.47730718      -2.61619572       0.00000000
Si       2.36713248      -0.09317880       2.84253984       0.00000000
Si      -0.17030652       2.77917174      -2.51059308       0.00000000
Si       2.54469348       2.77917174       0.20440692       0.00000000
