10
Lattice="10.86 0.0 0.0 0.0 10.86 0.0 0.0 0.0 10.86" Properties=species:S:1:pos:R:3:initial_magmoms:R:1 pbc="T T T"
Si      -1.17993900      -1.20014946       1.43436708       0.00000000
Si      -1.17993900       1.51485054      -1.28063292       0.00000000
Si       1.53506100       1.51485054       1.43436708       0.00000000
Si      -2.28912510      -2.61961662       0.21727602       0.00000000
Si      -2.36713248       0.09317880      -2.84253984       0.00000000
Si       2.65315230       0.21400716      -2.61989898       0.00000000
Si       2.70254358      -2.62865214      -0.11375850       0.00000000
Si      -2.53743900       0.15735054       2.79186708       0.00000000
Si       0.17756100      -2.55764946       2.79186708       0.00000000
Si      -2.53743900       2.87235054       0.07686708       0.00000000
