10
Lattice="10.86 0.0 0.0 0.0 10.86 0.0 0.0 0.0 10.86" Properties=species:S:1:pos:R:3:initial_magmoms:R:1 pbc="T T T"
Si      -1.32254166      -1.32935088       1.34803008       0.00000000
Si      -1.32254166       1.38564912      -1.36696992       0.00000000
Si       1.39245834       1.38564912       1.34803008       0.00000000
Si       1.81406526      -0.88192974      -1.26922992       0.00000000
Si       2.54823384       2.79843738      -0.02099238       0.00000000
Si      -2.68004166      -2.68685088      -0.00946992       0.00000000
Si      -2.68004166       0.02814912       2.70553008       0.00000000
Si       2.75270592      -2.63517900       0.03057090       0.00000000
Si       0.03495834      -2.68685088       2.70553008       0.00000000
Si      -2.68004166       0.02814912      -2.72446992       0.00000000
