10
Lattice="10.86 0.0 0.0 0.0 10.86 0.0 0.0 0.0 10.86" Properties=species:S:1:pos:R:3:initial_magmoms:R:1 pbc="T T T"
Si       1.13030880      -1.20446088      -1.55277366       0.00000000
Si      -1.34450058      -1.35417684       1.33156632       0.00000000
Si       1.37049942       1.36082316       1.33156632       0.00000000
Si      -1.34450058       1.36082316      -1.38343368       0.00000000
Si      -0.17294550      -2.68996770      -2.53053204       0.00000000
Si       2.61609798       0.13472916       2.76656328       0.00000000
Si      -2.70200058       0.00332316       2.68906632       0.00000000
Si       0.01299942       2.71832316       2.68906632       0.00000000
Si      -2.70200058      -2.71167684      -0.02593368       0.00000000
Si      -2.70200058       2.71832316      -0.02593368       0.00000000
