10
Lattice="16.290000149 0.0 0.0 0.0 16.290000149 0.0 0.0 0.0 29.1751946751" Properties=species:S:1:pos:R:3:initial_magmoms:R:1 pbc="T T T"
Si      -1.33063237      -1.36456118       1.37181765       0.00000000
Si       1.35058762      -1.34974217      -1.37184683       0.00000000
Si       1.35754345       1.34749252       1.36738302       0.00000000
Si      -1.36915822       1.34459290      -1.36318180       0.00000000
Si      -2.69475698      -2.70560612      -0.00589339       0.00000000
Si       2.71272485       2.69397506      -0.00627267       0.00000000
Si      -0.01071882       2.73372267       2.68090864       0.00000000
Si       2.72412785      -2.69615792      -0.03425168       0.00000000
Si      -2.75450871       0.00027693       2.66667114       0.00000000
Si      -0.01927107       2.70954830      -2.71904062       0.00000000
