10
Lattice="16.290000149 0.0 0.0 0.0 16.290000149 0.0 0.0 0.0 29.1751946751" Properties=species:S:1:pos:R:3:initial_magmoms:R:1 pbc="T T T"
Si      -1.36109467       1.36994014       1.26255655       0.00000000
Si      -1.41993415      -1.30999294      -1.31399242       0.00000000
Si       1.33763707       1.44736651      -1.25631306       0.00000000
Si       1.29665143      -1.30285792       1.46106457       0.00000000
Si      -2.77718439       0.04525362       2.50159789       0.00000000
Si       2.68130144       0.08438220      -2.60954611       0.00000000
Si      -0.04158837      -2.65696418      -2.63615389       0.00000000
Si       2.67879278      -2.64042983       0.11783861       0.00000000
Si      -0.04983111       2.78962995      -2.60312757       0.00000000
Si      -2.78195736       0.08449623      -2.61844455       0.00000000
