10
Lattice="16.290000149 0.0 0.0 0.0 16.290000149 0.0 0.0 0.0 29.1751946751" Properties=species:S:1:pos:R:3:initial_magmoms:R:1 pbc="T T T"
Si       1.60673158      -0.18487521      -1.67984936       0.00000000
Si      -0.42823152       2.29170329      -0.30563934       0.00000000
Si       0.24998634      -0.51106617       2.29806648       0.00000000
Si      -1.90097786      -1.29771028      -0.62887132       0.00000000
H        1.33061608      -2.22365018       1.50794911       0.00000000
H       -2.78689323      -0.45162396      -1.52128218       0.00000000
Si      -1.49537314       1.03241134       2.74827125       0.00000000
Si       0.03759732      -0.95943214      -3.26838036       0.00000000
Si      -2.32538123       2.27721170       1.03318117       0.00000000
Si      -0.87410512      -2.79122637      -2.09603351       0.00000000
