10
Lattice="16.290000149 0.0 0.0 0.0 16.290000149 0.0 0.0 0.0 29.1751946751" Properties=species:S:1:pos:R:3:initial_magmoms:R:1 pbc="T T T"
Si       1.34306164       1.35507226      -1.36679952       0.00000000
Si      -1.35713620      -1.36240928      -1.35043224       0.00000000
Si       1.39101940      -1.34782973       1.33298547       0.00000000
Si      -1.38424276       1.35551209       1.33368567       0.00000000
Si       0.02669931      -2.69875944       2.68067524       0.00000000
Si      -0.02658528       2.72362775       2.66932609       0.00000000
Si       2.70316262      -0.00234250      -2.70594096       0.00000000
Si      -2.70346888      -0.00179842      -2.70588261       0.00000000
Si       2.71661816       2.70236930      -0.02430294       0.00000000
Si       2.70945056      -2.71705311      -0.05126082       0.00000000
