10
Lattice="16.290000149 0.0 0.0 0.0 16.290000149 0.0 0.0 0.0 29.1751946751" Properties=species:S:1:pos:R:3:initial_magmoms:R:1 pbc="T T T"
Si      -1.34438113       1.35614251      -1.36726632       0.00000000
Si       1.32687101      -1.35231436      -1.39279462       0.00000000
Si      -1.34688979      -1.36866952       1.36011840       0.00000000
Si       1.34806104       1.37508778       1.35475016       0.00000000
Si       2.66683592      -2.71057457      -0.03022550       0.00000000
Si      -2.68804550       2.71912682      -0.01403327       0.00000000
Si      -2.71143794      -2.71490771      -0.00647689       0.00000000
Si       2.71920827       0.03420900       2.71241785       0.00000000
Si      -2.72903114      -0.03109761       2.70334436       0.00000000
Si       0.00431470       2.70871751      -2.72391288       0.00000000
