10
Lattice="16.290000149 0.0 0.0 0.0 16.290000149 0.0 0.0 0.0 29.1751946751" Properties=species:S:1:pos:R:3:initial_magmoms:R:1 pbc="T T T"
Si      -0.91170244      -1.83179423       1.17234685       0.00000000
Si       1.11127123       0.06612111      -2.08080406       0.00000000
Si       1.56913426       0.77455693       1.58853100       0.00000000
Si      -1.92197567       1.50066739      -0.31512128       0.00000000
Si      -1.93857518      -0.33827814       2.63950904       0.00000000
H       -2.82449055       0.50780817       1.74709818       0.00000000
Si      -0.03759732       0.95943214       3.26838036       0.00000000
H        1.87564691      -2.84785041      -0.13213446       0.00000000
Si       2.69588099       1.78632884      -1.48988967       0.00000000
Si       2.36991809       2.72825085       0.60719415       0.00000000
