10
Lattice="16.290000149 0.0 0.0 0.0 16.290000149 0.0 0.0 0.0 29.1751946751" Properties=species:S:1:pos:R:3:initial_magmoms:R:1 pbc="T T T"
Si       1.71820406      -0.75166948      -1.38555917       0.00000000
Si       1.35865117       1.35185824       1.33590299       0.00000000
Si      -1.43573220       1.17988471      -1.44589347       0.00000000
Si      -1.19276033      -1.69010381       1.18710950       0.00000000
Si      -1.66397627      -0.66556054      -2.89099922       0.00000000
Si       0.64799992      -0.84426184      -3.48836133       0.00000000
Si       2.56416005      -2.59631651      -0.26105964       0.00000000
Si      -2.65370113      -0.40640292       2.52846825       0.00000000
Si      -0.08773794       2.54581751       2.69172155       0.00000000
Si       2.63643878      -0.14346603       2.67441978       0.00000000
