10
Lattice="16.290000149 0.0 0.0 0.0 16.290000149 0.0 0.0 0.0 29.1751946751" Properties=species:S:1:pos:R:3:initial_magmoms:R:1 pbc="T T T"
Si      -1.33255459       1.36609407      -1.37193435       0.00000000
Si       1.37136552       1.37193893       1.32960115       0.00000000
Si       1.36949217      -1.33973848      -1.38033681       0.00000000
Si      -1.37917657      -1.32639697       1.38929360       0.00000000
Si      -2.63715554      -2.69444747      -0.06579006       0.00000000
Si       0.06008164      -2.67600719       2.67556958       0.00000000
Si      -0.02549385       2.70951572       2.67673659       0.00000000
Si      -2.70366761       2.70617627      -0.00688535       0.00000000
Si      -2.66460419       0.01119123      -2.75495528       0.00000000
Si       2.77891113       0.03399723       2.66124456       0.00000000
