10
Lattice="16.290000149 0.0 0.0 0.0 16.290000149 0.0 0.0 0.0 29.1751946751" Properties=species:S:1:pos:R:3:initial_magmoms:R:1 pbc="T T T"
Si       0.43873857      -0.24713559       2.28339719       0.00000000
Si      -1.71686828       1.63219285       0.10555585       0.00000000
Si      -0.05085738      -2.29421846      -0.66887051       0.00000000
Si       1.86893543       0.89801884      -1.27667734       0.00000000
H       -0.92766664       0.16262307      -2.54101358       0.00000000
Si       2.15239772      -2.67590945       0.13837795       0.00000000
Si      -0.32446422       3.37062909      -0.81048691       0.00000000
Si       2.07107804      -1.98285140       2.36781795       0.00000000
Si       3.46309113       1.71167177       0.28434145       0.00000000
Si      -3.77367627       0.62459119      -0.61690949       0.00000000
