10
Lattice="16.290000149 0.0 0.0 0.0 16.290000149 0.0 0.0 0.0 29.1751946751" Properties=species:S:1:pos:R:3:initial_magmoms:R:1 pbc="T T T"
Si      -1.37156914      -1.40654377      -1.31232360       0.00000000
Si      -1.34625448       1.27946548       1.46039354       0.00000000
Si       1.33959187      -1.33628500       1.42156136       0.00000000
Si       1.34174215       1.41833773      -1.35934234       0.00000000
Si       2.67253742      -0.02132361      -2.67322973       0.00000000
Si       0.06020784      -2.77843872      -2.59649021       0.00000000
Si      -2.68066613      -2.69581583       0.15786698       0.00000000
Si      -2.77941612       2.59924871       0.17791034       0.00000000
Si      -2.72095130      -0.04416219      -2.68778231       0.00000000
Si       2.68866452       2.75191860       0.02835829       0.00000000
