10
Lattice="16.290000149 0.0 0.0 0.0 16.290000149 0.0 0.0 0.0 29.1751946751" Properties=species:S:1:pos:R:3:initial_magmoms:R:1 pbc="T T T"
Si      -0.91287532       0.89876818      -0.80360156       0.00000000
Si       0.89236621      -1.56362824       1.50333943       0.00000000
H       -2.04980330      -0.34881777       1.41123334       0.00000000
Si       1.92440288       0.58569067       1.89396611       0.00000000
Si       1.87431113      -1.97029181      -0.64955653       0.00000000
Si      -1.42022737      -1.64661602       1.85758464       0.00000000
Si      -2.21719934      -0.56397610      -2.09915526       0.00000000
Si       0.43161984       2.20903805      -2.19528752       0.00000000
Si      -2.05227938       2.33293979       0.66026383       0.00000000
Si       3.04478022       2.02470041       0.34126225       0.00000000
