10
Lattice="16.290000149 0.0 0.0 0.0 16.290000149 0.0 0.0 0.0 29.1751946751" Properties=species:S:1:pos:R:3:initial_magmoms:R:1 pbc="T T T"
Si      -1.48221082       1.80299351      -0.11748851       0.00000000
Si       1.12384711      -1.11485503      -1.75214549       0.00000000
Si      -1.65017702      -1.53135775       0.73626521       0.00000000
Si       1.86243572       0.83952145       1.25199513       0.00000000
H       -0.74793907       0.55625464       2.49850532       0.00000000
H       -1.39909924       0.97858918       2.45634717       0.00000000
Si       2.46731600      -2.52833834      -0.37924836       0.00000000
H        1.37264428       3.21025404      -0.97357625       0.00000000
H        0.80426989       3.33159825       1.35151172       0.00000000
Si       2.55594989       2.69089625      -0.17601395       0.00000000
