10
Lattice="16.290000149 0.0 0.0 0.0 16.290000149 0.0 0.0 0.0 29.1751946751" Properties=species:S:1:pos:R:3:initial_magmoms:R:1 pbc="T T T"
Si       1.36413113      -1.45432234       1.17850281       0.00000000
Si      -1.23875777      -1.37202624      -1.42695877       0.00000000
Si       1.41098117       1.28852272      -1.38229155       0.00000000
Si      -1.20678911       1.39196422       1.50614025       0.00000000
H        1.57837721       1.50368104       2.12809705       0.00000000
Si       2.20795314       0.20588280       2.57444835       0.00000000
Si      -2.53330028       2.68516217       0.06027595       0.00000000
Si      -2.53525508      -2.71919198      -0.05411999       0.00000000
Si       0.05484191       2.62358597      -2.75218364       0.00000000
Si      -2.71087757      -0.07882242      -2.69616727       0.00000000
