10
Lattice="16.290000149 0.0 0.0 0.0 16.290000149 0.0 0.0 0.0 29.1751946751" Properties=species:S:1:pos:R:3:initial_magmoms:R:1 pbc="T T T"
Si      -1.45994402      -1.38491065       1.21678067       0.00000000
Si       1.33947784      -1.33076269      -1.40796572       0.00000000
Si      -1.34561266       1.35078310      -1.38903102       0.00000000
Si       1.40708134       1.39509190       1.30267244       0.00000000
Si      -0.12038310       2.66382227       2.51428910       0.00000000
Si      -0.04587264      -2.60486876       2.59843036       0.00000000
Si       2.75900475       2.68327253      -0.06736552       0.00000000
Si      -2.79972975      -0.08840583       2.64531490       0.00000000
Si      -0.00798210       2.70101234      -2.75854383       0.00000000
Si       2.75994957      -2.70228296      -0.15494946       0.00000000
