10
Lattice="16.290000149 0.0 0.0 0.0 16.290000149 0.0 0.0 0.0 29.1751946751" Properties=species:S:1:pos:R:3:initial_magmoms:R:1 pbc="T T T"
Si      -1.30316743      -1.35386191       1.43441012       0.00000000
Si       1.36054733      -1.45844371      -1.28666693       0.00000000
Si       1.39044274       1.28666566       1.43499362       0.00000000
Si      -1.29992572       1.53016858      -1.31894345       0.00000000
Si       2.70614369       0.00329058      -2.52105716       0.00000000
Si      -2.53185698       2.73040570       0.27797542       0.00000000
Si      -2.65008980      -2.68744277       0.04670949       0.00000000
Si       2.80214067       2.67698459       0.17799786       0.00000000
Si      -2.64702728      -0.05113431       2.85848054       0.00000000
Si       0.10907670       2.63207306       2.89118594       0.00000000
