10
Lattice="16.290000149 0.0 0.0 0.0 16.290000149 0.0 0.0 0.0 29.1751946751" Properties=species:S:1:pos:R:3:initial_magmoms:R:1 pbc="T T T"
Si       1.41721372      -1.34339591       1.25363478       0.00000000
Si      -1.49868001       1.23559814       1.27897635       0.00000000
Si      -1.03949749      -1.85380039      -0.95187865       0.00000000
Si       0.86617189       1.72729550      -1.38309678       0.00000000
H       -2.04934718       0.77991797      -2.05878262       0.00000000
Si      -1.86950558      -0.60900003      -2.66696873       0.00000000
Si      -0.07905537       2.66434518       2.51510017       0.00000000
Si       2.64914498      -2.54363302      -0.34328409       0.00000000
Si      -0.83957032       3.39602683      -1.25678861       0.00000000
Si      -0.04359204      -2.77990319       2.46865326       0.00000000
