10
Lattice="16.290000149 0.0 0.0 0.0 16.290000149 0.0 0.0 0.0 29.1751946751" Properties=species:S:1:pos:R:3:initial_magmoms:R:1 pbc="T T T"
Si      -1.35881407      -1.36546039      -1.33082651       0.00000000
Si      -1.34780203       1.34776945       1.36586591       0.00000000
Si       1.33639903      -1.37523439       1.35320388       0.00000000
Si       1.33830496       1.35702217      -1.38083279       0.00000000
Si      -2.70363503       2.67747329      -0.02153129       0.00000000
Si       2.67983372      -0.01278765       2.70468642       0.00000000
Si       0.00666261      -2.71279001      -2.68085029       0.00000000
Si      -2.68820840       0.00117288      -2.70658281       0.00000000
Si       2.69050692       2.71036280      -0.02045181       0.00000000
Si      -2.70213635      -0.02735091       2.70833332       0.00000000
