10
Lattice="16.290000149 0.0 0.0 0.0 16.290000149 0.0 0.0 0.0 29.1751946751" Properties=species:S:1:pos:R:3:initial_magmoms:R:1 pbc="T T T"
Si       1.35281935       1.39794265      -1.32019798       0.00000000
Si      -1.35163018       1.36938628       1.35836789       0.00000000
Si       1.37676565      -1.34728075       1.35898057       0.00000000
Si      -1.36215352      -1.36785502      -1.36322264       0.00000000
Si       2.73486296       0.04059468      -2.64296338       0.00000000
Si      -2.70799261      -2.69703758       0.01788439       0.00000000
Si       2.69045642       2.72222192       0.08440384       0.00000000
Si      -2.69838314       0.02160054       2.72636359       0.00000000
Si       0.02158425      -2.69131979       2.73438677       0.00000000
Si      -2.71709709       2.71728605      -0.01382904       0.00000000
