10
Lattice="16.290000149 0.0 0.0 0.0 16.290000149 0.0 0.0 0.0 29.1751946751" Properties=species:S:1:pos:R:3:initial_magmoms:R:1 pbc="T T T"
Si       1.33376005       1.34007731      -1.32869672       0.00000000
Si      -1.32999706       1.41934445       1.28653856       0.00000000
Si       1.43425306      -1.34643693       1.26168129       0.00000000
Si      -1.36122499      -1.28237870      -1.40965788       0.00000000
Si       0.05465295      -2.69018275       2.59688408       0.00000000
Si      -2.67872762       0.04557453       2.62352103       0.00000000
Si       0.05574438       2.76945967       2.61123827       0.00000000
Si       2.78107770       0.04115669       2.60120201       0.00000000
Si      -0.03921003      -2.77088341      -2.61646647       0.00000000
Si      -2.71049312      -2.67772090      -0.09878721       0.00000000
