10
Lattice="16.290000149 0.0 0.0 0.0 16.290000149 0.0 0.0 0.0 29.1751946751" Properties=species:S:1:pos:R:3:initial_magmoms:R:1 pbc="T T T"
Si      -1.27838383       1.37307597      -1.38788152       0.00000000
Si       1.30111489       1.32686938       1.42606601       0.00000000
Si      -1.41169793      -1.39031893       1.25699576       0.00000000
Si       1.33009480      -1.31401657      -1.41959495       0.00000000
Si       2.64758114       2.65706192       0.07981458       0.00000000
Si       2.65821851      -2.70966233      -0.04937318       0.00000000
Si      -0.04623102      -2.73821870       2.62919269       0.00000000
Si      -0.09599697      -2.67369401      -2.69905503       0.00000000
Si      -2.71058842       2.67993308      -0.03536034       0.00000000
Si      -2.69306396      -0.04491153       2.71318807       0.00000000
