10
Lattice="16.290000149 0.0 0.0 0.0 16.290000149 0.0 0.0 0.0 29.1751946751" Properties=species:S:1:pos:R:3:initial_magmoms:R:1 pbc="T T T"
Si       1.30393306       1.31287627      -1.47696506       0.00000000
Si       1.25618707      -1.63095481       1.17050881       0.00000000
Si      -1.05142177       1.71624926       1.26702035       0.00000000
Si      -1.30380274      -1.66123793      -1.17021706       0.00000000
H        0.22024080      -2.73468377       1.38509237       0.00000000
H       -3.05548275      -1.02053593       0.35730861       0.00000000
H       -2.48710835      -1.14188014      -1.96777936       0.00000000
H       -0.28704609      -1.19772226       3.21568996       0.00000000
H       -1.85906369       0.51774507      -3.07249810       0.00000000
Si      -2.52770303       2.79381648      -0.21948499       0.00000000
