10
Lattice="16.290000149 0.0 0.0 0.0 16.290000149 0.0 0.0 0.0 29.1751946751" Properties=species:S:1:pos:R:3:initial_magmoms:R:1 pbc="T T T"
Si      -1.42047172       1.37152027      -1.25301626       0.00000000
Si      -1.30052845      -1.23520555       1.50185150       0.00000000
Si       1.18167661      -1.45362187      -1.41135004       0.00000000
Si       1.85422556       0.93125044       1.10792802       0.00000000
Si       3.45421308      -0.84740581       1.01798089       0.00000000
Si      -0.04421106       2.69089625      -2.61672321       0.00000000
Si       2.57676851      -2.73686664      -0.05149422       0.00000000
Si       2.56577276      -0.11803734      -2.75197941       0.00000000
Si       0.14897205      -2.58844844       2.78200069       0.00000000
Si      -2.77674456      -0.01006722      -2.60417788       0.00000000
