10
Lattice="16.290000149 0.0 0.0 0.0 16.290000149 0.0 0.0 0.0 29.1751946751" Properties=species:S:1:pos:R:3:initial_magmoms:R:1 pbc="T T T"
Si      -1.67923838       1.67536136       0.25399924       0.00000000
Si       0.35598537      -0.24478983       2.36141108       0.00000000
Si       1.64255330       1.05406075      -1.43025557       0.00000000
Si      -1.07435809      -1.69249844      -1.37724424       0.00000000
H        1.88096071      -1.59708790       0.25207368       0.00000000
H        0.53831934       2.45329031       1.38129959       0.00000000
H       -1.08747154       0.04176756       2.80326941       0.00000000
Si      -2.41782698      -0.27901512      -2.75014138       0.00000000
Si       0.35150562       2.46404171      -2.79250376       0.00000000
Si      -3.54167409       0.83583991      -0.99799588       0.00000000
