10
Lattice="16.290000149 0.0 0.0 0.0 16.290000149 0.0 0.0 0.0 29.1751946751" Properties=species:S:1:pos:R:3:initial_magmoms:R:1 pbc="T T T"
Si       1.18330561      -0.51935778       0.79756230       0.00000000
H       -0.81052525       0.75196270      -1.64597696       0.00000000
H        0.62804467       1.65962522      -1.10471875       0.00000000
H       -0.56837440       0.12134421       2.32508796       0.00000000
Si      -1.88147873       0.59052880       1.72930131       0.00000000
Si      -1.65478709      -0.18138915      -2.45646387       0.00000000
Si       2.52053543      -1.58205223      -0.82093163       0.00000000
Si      -1.61284033       2.62415612       0.53425616       0.00000000
Si       0.48979143      -2.37073259       2.22557138       0.00000000
Si      -2.85485511      -1.40726053       0.85608774       0.00000000
