10
Lattice="16.290000149 0.0 0.0 0.0 16.290000149 0.0 0.0 0.0 29.1751946751" Properties=species:S:1:pos:R:3:initial_magmoms:R:1 pbc="T T T"
Si       1.34053669      -1.32898708      -1.35828036       0.00000000
Si      -1.21640363      -1.50645034       1.29841286       0.00000000
Si       1.50936625       1.35084826       1.17252190       0.00000000
Si      -1.04365958       1.52559109      -1.46307766       0.00000000
H        2.69535971      -0.74736892      -1.08245807       0.00000000
Si       0.08283465       2.53140086       2.62839329       0.00000000
Si      -1.44464771      -3.35189559      -0.14669288       0.00000000
Si       2.27322065       2.84709944      -0.54957314       0.00000000
Si       0.86732848      -3.53059689      -0.74405499       0.00000000
Si      -2.68293044      -0.28593837       2.62865587       0.00000000
