10
Lattice="16.290000149 0.0 0.0 0.0 16.290000149 0.0 0.0 0.0 29.1751946751" Properties=species:S:1:pos:R:3:initial_magmoms:R:1 pbc="T T T"
Si      -1.33483438      -1.37717290      -1.34500565       0.00000000
Si       1.34317079      -1.35782038       1.36344437       0.00000000
Si       1.33121393       1.35757603      -1.38313763       0.00000000
Si      -1.38828757       1.36124128       1.32294920       0.00000000
Si      -2.66478827       0.03186324      -2.65567210       0.00000000
Si      -0.03608561       2.71458191       2.68333018       0.00000000
Si       2.69141265       2.71220357      -0.03002128       0.00000000
Si       2.69165700       0.00451233       2.71300135       0.00000000
Si       2.70203373      -2.71340903       0.00930689       0.00000000
Si      -2.71992992      -2.70857090       0.02293170       0.00000000
