10
Lattice="16.290000149 0.0 0.0 0.0 16.290000149 0.0 0.0 0.0 29.1751946751" Properties=species:S:1:pos:R:3:initial_magmoms:R:1 pbc="T T T"
Si       1.36002116       1.34972425      -1.35364151       0.00000000
Si       1.37114723      -1.34087878       1.35766768       0.00000000
Si      -1.33886936       1.36247932       1.37257621       0.00000000
Si      -1.34806104      -1.37508778      -1.35475016       0.00000000
Si      -2.68814162      -0.04766454       2.67816617       0.00000000
Si       2.66877606      -2.70044219      -0.05960492       0.00000000
Si      -0.02945884       2.69874803      -2.68333018       0.00000000
Si      -2.69244218      -0.01894527      -2.72201649       0.00000000
Si       2.67780072      -0.01374876      -2.74381036       0.00000000
Si       2.72742006       0.04070871       2.70882930       0.00000000
