10
Lattice="16.290000149 0.0 0.0 0.0 16.290000149 0.0 0.0 0.0 29.1751946751" Properties=species:S:1:pos:R:3:initial_magmoms:R:1 pbc="T T T"
Si       1.35220196       1.35334063       1.36038098       0.00000000
Si       1.38828757      -1.36124128      -1.32294920       0.00000000
Si      -1.33830496      -1.35702217       1.38083279       0.00000000
Si      -1.34540740       1.38078928      -1.35437089       0.00000000
Si      -2.68952789       2.71161713       0.03229694       0.00000000
Si       0.05345319      -2.73841419      -2.66795485       0.00000000
Si      -2.70166394       0.03083697      -2.70856672       0.00000000
Si       2.69216687      -0.00491958       2.72295009       0.00000000
Si       2.71106327       2.70484049      -0.00166299       0.00000000
Si      -2.69711903      -2.72248256       0.05000628       0.00000000
