10
Lattice="16.290000149 0.0 0.0 0.0 16.290000149 0.0 0.0 0.0 29.1751946751" Properties=species:S:1:pos:R:3:initial_magmoms:R:1 pbc="T T T"
Si       1.34563546      -1.34503273       1.36548664       0.00000000
Si      -1.35459496       1.32898708       1.40070110       0.00000000
Si      -1.42247539      -1.45997497      -1.22375646       0.00000000
Si       1.46080576       1.43650727      -1.21501849       0.00000000
Si      -0.99590545       0.92610280      -3.42053192       0.00000000
Si       0.04359204       2.77990319      -2.46865326       0.00000000
Si      -2.82805806      -0.09545940      -2.47744667       0.00000000
Si       2.68949531      -2.64776033      -0.05858379       0.00000000
Si      -0.08475687      -2.61457760      -2.78022684       0.00000000
Si      -0.01013238      -2.71567334       2.71154259       0.00000000
