10
Lattice="16.290000149 0.0 0.0 0.0 16.290000149 0.0 0.0 0.0 29.1751946751" Properties=species:S:1:pos:R:3:initial_magmoms:R:1 pbc="T T T"
Si       1.30052845       1.23520555      -1.50185150       0.00000000
Si       1.44950050      -1.35324289       1.28014919       0.00000000
Si      -1.50529375       1.33261975       1.25152833       0.00000000
Si      -1.43470918      -1.40752117      -1.31941900       0.00000000
Si       2.50530428      -2.82359460      -0.19567803       0.00000000
Si      -2.81643514      -0.16172712       2.51741085       0.00000000
Si      -0.11994327       2.60672582      -2.75486776       0.00000000
Si       0.13706406      -2.71033022       2.66547496       0.00000000
Si       2.48220506      -0.21841632      -2.91320154       0.00000000
Si       3.15475401       2.16645599      -0.39392348       0.00000000
