10
Lattice="16.290000149 0.0 0.0 0.0 16.290000149 0.0 0.0 0.0 29.1751946751" Properties=species:S:1:pos:R:3:initial_magmoms:R:1 pbc="T T T"
Si      -1.36894645       1.34809525      -1.34165050       0.00000000
Si      -1.37497375      -1.34203537       1.34264246       0.00000000
Si       1.35511624      -1.35281935      -1.36601179       0.00000000
Si       1.35715249       1.36309834       1.35795944       0.00000000
Si       0.01065366       2.69184107      -2.67685329       0.00000000
Si      -0.01295055      -2.73652454       2.64709459       0.00000000
Si       2.71780733      -2.69232977      -0.00207144       0.00000000
Si      -2.72684828       0.02785590       2.69397913       0.00000000
Si       2.71088408       0.01782126      -2.71206775       0.00000000
Si      -2.72947097      -2.69573438      -0.01776769       0.00000000
