10
Lattice="16.290000149 0.0 0.0 0.0 16.290000149 0.0 0.0 0.0 29.1751946751" Properties=species:S:1:pos:R:3:initial_magmoms:R:1 pbc="T T T"
Si      -2.29061023       0.34508736      -0.01391657       0.00000000
Si       0.23161937      -0.75531844      -2.18872310       0.00000000
Si       1.04365958      -1.52559109       1.46307766       0.00000000
Si       1.23966087       2.03217100       0.07004964       0.00000000
H       -1.71578499       1.64861155      -1.03458158       0.00000000
Si      -2.61657313       1.28700938       2.08316725       0.00000000
Si       2.55302584      -0.17474283       2.63559956       0.00000000
Si       3.31688024       1.32150834       0.91350452       0.00000000
Si       1.88987622      -2.41290740      -2.09947618       0.00000000
Si       2.38419628      -2.85457818       0.10479730       0.00000000
