10
Lattice="16.290000149 0.0 0.0 0.0 16.290000149 0.0 0.0 0.0 29.1751946751" Properties=species:S:1:pos:R:3:initial_magmoms:R:1 pbc="T T T"
Si       1.35192340       1.28818063      -1.37003797       0.00000000
Si      -1.52746444       1.26873037       1.21161666       0.00000000
Si       1.03397518      -0.82746685       1.95298753       0.00000000
Si      -1.40708134      -1.39509190      -1.30267244       0.00000000
Si      -0.79706971      -2.11791179       2.59198265       0.00000000
Si      -2.45532656      -0.46032282       2.50273572       0.00000000
Si       2.61089606       2.60525972       0.10042102       0.00000000
Si      -0.06592563       2.65159174      -2.67723256       0.00000000
Si       2.71583624      -0.08114049      -2.71588970       0.00000000
Si      -0.06760350      -2.72585459      -2.71063816       0.00000000
