10
Lattice="16.290000149 0.0 0.0 0.0 16.290000149 0.0 0.0 0.0 29.1751946751" Properties=species:S:1:pos:R:3:initial_magmoms:R:1 pbc="T T T"
Si      -1.56957409       1.27900936      -1.12420778       0.00000000
Si      -1.39325113      -1.43544223       1.17625632       0.00000000
Si       1.56361195       1.12104523       1.47051734       0.00000000
Si       1.07227297      -1.10776888      -1.86791266       0.00000000
Si       2.09797283      -2.44089362      -0.24804751       0.00000000
Si       0.30923307      -3.03178080       1.19148578       0.00000000
Si       0.04911435       2.30767400      -2.51647724       0.00000000
Si       1.83330920       0.76411504      -3.14884959       0.00000000
Si      -2.53871507       2.73442314       0.38811761       0.00000000
Si      -2.98740684      -2.24909516      -0.38476247       0.00000000
