10
Lattice="16.290000149 0.0 0.0 0.0 16.290000149 0.0 0.0 0.0 29.1751946751" Properties=species:S:1:pos:R:3:initial_magmoms:R:1 pbc="T T T"
Si       1.34343468       1.36244674       1.35148254       0.00000000
Si      -1.33639903       1.37523439      -1.35320388       0.00000000
Si       1.36578782      -1.35174421      -1.34906100       0.00000000
Si      -1.35378046      -1.34869798       1.37313054       0.00000000
Si      -2.69521310       0.00977400      -2.68403038       0.00000000
Si       2.67563252       0.00472410       2.71518949       0.00000000
Si      -0.00444717      -2.72096759      -2.67405247       0.00000000
Si       2.69483843      -2.71208954       0.02494479       0.00000000
Si      -2.68420106       2.72300384       0.01266203       0.00000000
Si       2.69407280       2.72733698      -0.01108657       0.00000000
