10
Lattice="16.290000149 0.0 0.0 0.0 16.290000149 0.0 0.0 0.0 29.1751946751" Properties=species:S:1:pos:R:3:initial_magmoms:R:1 pbc="T T T"
Si       1.36041049       1.36247932      -1.34378029       0.00000000
Si      -1.36441783      -1.35506737      -1.34803987       0.00000000
Si       1.35076681      -1.37645614       1.34214648       0.00000000
Si      -1.37469682       1.36449928       1.33246032       0.00000000
Si      -0.02324583       2.70032816      -2.69421253       0.00000000
Si       2.72932436      -0.01653435      -2.66675867       0.00000000
Si       2.72779310      -0.03590316       2.67434422       0.00000000
Si       0.00495216      -2.71919198      -2.68397203       0.00000000
Si      -0.02581965       2.72606636       2.68076276       0.00000000
Si      -2.71283888      -2.70246215       0.02967117       0.00000000
