10
Lattice="16.290000149 0.0 0.0 0.0 16.290000149 0.0 0.0 0.0 29.1751946751" Properties=species:S:1:pos:R:3:initial_magmoms:R:1 pbc="T T T"
Si      -1.19656567      -0.36422811      -0.89092292       0.00000000
H        1.39536883      -2.03377394       0.45676685       0.00000000
Si      -0.34251354       1.11540889      -2.52563825       0.00000000
Si       0.08241111       2.92628676      -1.04000816       0.00000000
Si      -1.96266157      -2.47884932       0.28454567       0.00000000
Si       1.99857125       1.17423208       2.18729352       0.00000000
Si      -1.45064080      -1.57180582       2.38087094       0.00000000
Si       0.60616720      -0.56420416       3.10333628       0.00000000
H        3.11613042       0.63524485      -0.73903686       0.00000000
Si      -0.66130885      -2.74926333      -1.63477368       0.00000000
