10
Lattice="16.290000149 0.0 0.0 0.0 16.290000149 0.0 0.0 0.0 29.1751946751" Properties=species:S:1:pos:R:3:initial_magmoms:R:1 pbc="T T T"
Si      -1.02687274       1.49351608       1.46716219       0.00000000
Si       0.91170244       1.83179423      -1.17234685       0.00000000
Si      -1.33473745      -1.45104805      -1.29990080       0.00000000
Si       1.51040881      -1.30772863       1.28828907       0.00000000
H       -1.91278811       2.33960240       0.57475134       0.00000000
H        2.78734935      -1.01605618      -1.30448130       0.00000000
Si       2.32632605      -2.29904030      -0.65092777       0.00000000
Si       0.44945739      -2.99460702      -1.93227314       0.00000000
Si       0.87410512       2.79122637       2.09603351       0.00000000
Si       2.48083670       2.60635115       0.41618415       0.00000000
