10
Lattice="16.290000149 0.0 0.0 0.0 16.290000149 0.0 0.0 0.0 29.1751946751" Properties=species:S:1:pos:R:3:initial_magmoms:R:1 pbc="T T T"
Si       1.30005604      -1.34936587       1.41870219       0.00000000
Si      -1.37819917       1.34868169       1.35046141       0.00000000
Si      -1.42871446      -1.40398624      -1.24203764       0.00000000
Si       1.42739497       1.39031893      -1.28169839       0.00000000
Si      -2.63085131      -0.00663003      -2.68354024       0.00000000
Si       2.71480997      -0.05841594      -2.61035427       0.00000000
Si       0.05229090       2.65487906      -2.69877845       0.00000000
Si      -0.11456757      -2.72717734      -2.64351771       0.00000000
Si       2.63005310      -2.76871033       0.13216363       0.00000000
Si      -0.03127680       2.70560612       2.71273878       0.00000000
