10
Lattice="16.290000149 0.0 0.0 0.0 16.290000149 0.0 0.0 0.0 29.1751946751" Properties=species:S:1:pos:R:3:initial_magmoms:R:1 pbc="T T T"
Si      -1.34927225      -1.41014386       1.30558996       0.00000000
Si       1.33886936      -1.36247932      -1.37257621       0.00000000
Si      -1.43925821       1.34961022      -1.28627598       0.00000000
Si       1.38119893       1.35977518       1.35518779       0.00000000
Si      -2.58439636      -0.04279383       2.72423380       0.00000000
Si      -0.06008164       2.67600719      -2.67556958       0.00000000
Si       0.00353959       2.75511046       2.65304633       0.00000000
Si       2.71001659      -2.70335810      -0.01490852       0.00000000
Si       2.69889052      -0.01275507      -2.72621772       0.00000000
Si      -0.02588893      -2.78295105       2.64125955       0.00000000
