10
Lattice="16.290000149 0.0 0.0 0.0 16.290000149 0.0 0.0 0.0 29.1751946751" Properties=species:S:1:pos:R:3:initial_magmoms:R:1 pbc="T T T"
Si       1.75148453       1.02317491       1.16009327       0.00000000
Si       1.33978572      -1.29650482      -1.42853423       0.00000000
Si      -1.22003956       1.48735846      -1.36364860       0.00000000
Si      -1.30393306      -1.31287627       1.47696506       0.00000000
H       -3.16299675      -0.79513120      -1.59553305       0.00000000
Si      -2.35535483       0.40337298       2.74398541       0.00000000
Si      -2.51147819       0.03661992      -2.66529991       0.00000000
Si       3.40974138      -0.63441406       1.24934019       0.00000000
Si       2.75385711      -2.51646293      -0.04688454       0.00000000
Si      -2.51330267       2.89538805      -0.02226067       0.00000000
