10
Lattice="16.290000149 0.0 0.0 0.0 16.290000149 0.0 0.0 0.0 29.1751946751" Properties=species:S:1:pos:R:3:initial_magmoms:R:1 pbc="T T T"
Si      -1.36010098       1.35741476       1.33914144       0.00000000
Si       1.34873056       1.37376992      -1.33698247       0.00000000
Si       1.38277666      -1.35931743       1.32204477       0.00000000
Si      -1.35583300      -1.37160009      -1.33797443       0.00000000
Si       2.67872762      -0.04557453      -2.62352103       0.00000000
Si       0.00628794      -2.71471061       2.65468014       0.00000000
Si      -2.72650620      -0.01104299      -2.65147087       0.00000000
Si       0.01345554       2.70471180       2.68163802       0.00000000
Si       2.73320139       0.01037673       2.67297299       0.00000000
Si      -2.70316262       0.00234250       2.70594096       0.00000000
