10
Lattice="16.290000149 0.0 0.0 0.0 16.290000149 0.0 0.0 0.0 29.1751946751" Properties=species:S:1:pos:R:3:initial_magmoms:R:1 pbc="T T T"
Si       1.82063558      -0.88870096       1.14506804       0.00000000
Si      -0.87838939       1.78096943       1.28289166       0.00000000
Si       1.12037734       1.43900974      -1.55270386       0.00000000
Si      -1.03203667      -2.14931891      -0.39062668       0.00000000
H       -1.92440288      -0.58569067      -1.89396611       0.00000000
Si       2.60833853       2.44889201      -0.08227405       0.00000000
Si      -0.05009175      -2.55598247      -2.54352265       0.00000000
Si      -1.96786460       0.61519186       2.98581860       0.00000000
Si       0.99665479       3.24076521       1.43731597       0.00000000
H        3.21300705      -0.62519392      -1.76559526       0.00000000
