10
Lattice="16.290000149 0.0 0.0 0.0 16.290000149 0.0 0.0 0.0 29.1751946751" Properties=species:S:1:pos:R:3:initial_magmoms:R:1 pbc="T T T"
Si      -1.37823175      -1.36407574      -1.30494811       0.00000000
Si      -1.38559483       1.31465188       1.35781356       0.00000000
Si       1.32939433      -1.36663327       1.37575630       0.00000000
Si       1.32484942       1.38668626      -1.38281670       0.00000000
Si      -2.69540858       0.02715543      -2.64651108       0.00000000
Si      -0.01542663       2.67630041       2.68505152       0.00000000
Si       2.68820840      -0.00117288       2.70658281       0.00000000
Si      -0.05103657      -2.72310158      -2.67098907       0.00000000
Si       2.75001267       0.02647125      -2.65287128       0.00000000
Si       2.69487101      -2.71396289       0.02573252       0.00000000
