10
Lattice="16.290000149 0.0 0.0 0.0 16.290000149 0.0 0.0 0.0 29.1751946751" Properties=species:S:1:pos:R:3:initial_magmoms:R:1 pbc="T T T"
Si       1.38559483      -1.31465188      -1.35781356       0.00000000
Si       1.37016820       1.36164853       1.32723796       0.00000000
Si      -1.35578413       1.37039626      -1.33844123       0.00000000
Si      -1.35658234      -1.35524656       1.35743428       0.00000000
Si       0.00736308      -2.67872762      -2.66276167       0.00000000
Si      -0.00817758       2.70861977       2.64939943       0.00000000
Si       0.02459790       2.68778486      -2.70179808       0.00000000
Si       2.71498916      -2.68128515       0.01794274       0.00000000
Si      -2.73434169       0.01047447       2.67046392       0.00000000
Si      -2.73421137      -2.69133608       0.01307049       0.00000000
