10
Lattice="16.290000149 0.0 0.0 0.0 16.290000149 0.0 0.0 0.0 29.1751946751" Properties=species:S:1:pos:R:3:initial_magmoms:R:1 pbc="T T T"
Si      -1.36989127       1.35806473       1.33196434       0.00000000
Si      -1.37355652      -1.34729704      -1.34249658       0.00000000
Si       1.34988715       1.36495540      -1.35585882       0.00000000
Si       1.36915822      -1.34459290       1.36318180       0.00000000
Si      -0.00403992       2.71534754       2.66325765       0.00000000
Si      -0.01345554      -2.70471180      -2.68163802       0.00000000
Si       2.71974584      -2.69433507      -0.00866503       0.00000000
Si       2.72101646       0.01917333      -2.69392078       0.00000000
Si      -2.70347213       0.02283858      -2.71463516       0.00000000
Si      -2.71661816      -2.70236930       0.02430294       0.00000000
