10
Lattice="16.290000149 0.0 0.0 0.0 16.290000149 0.0 0.0 0.0 29.1751946751" Properties=species:S:1:pos:R:3:initial_magmoms:R:1 pbc="T T T"
Si       0.05111802       1.06694614       1.07043789       0.00000000
H        1.11943578       1.85259656      -1.92255780       0.00000000
Si      -2.46130499      -1.40454010      -0.95706309       0.00000000
Si      -0.48127176      -2.08426805      -2.12722179       0.00000000
Si      -1.55906704       0.41106186       2.65640148       0.00000000
Si       2.24626722       1.26770410       1.73700357       0.00000000
H       -1.36339156      -2.24145841       1.75246642       0.00000000
Si      -0.40553955       3.20489463       0.18677960       0.00000000
Si       2.24995690       0.87711877      -2.20821213       0.00000000
H        0.66456685      -2.91236044      -1.34115452       0.00000000
