10
Lattice="16.290000149 0.0 0.0 0.0 16.290000149 0.0 0.0 0.0 29.1751946751" Properties=species:S:1:pos:R:3:initial_magmoms:R:1 pbc="T T T"
H        1.08062974      -1.71258401      -0.79011737       0.00000000
Si      -0.24998634       0.51106617      -2.29806648       0.00000000
Si       1.94328299       0.85364488       1.05879932       0.00000000
Si      -1.74535949       1.54347751       0.45020476       0.00000000
Si      -0.83421091      -1.99720289       1.09050984       0.00000000
Si       0.71135173       2.05388199       2.65571819       0.00000000
Si      -2.17192943      -0.84260026       2.64698022       0.00000000
Si       1.98009839      -2.45682524      -1.76786567       0.00000000
Si      -2.15096420      -0.78664411      -2.92693780       0.00000000
Si      -0.70586200       3.39727790       1.40208342       0.00000000
