10
Lattice="16.290000149 0.0 0.0 0.0 16.290000149 0.0 0.0 0.0 29.1751946751" Properties=species:S:1:pos:R:3:initial_magmoms:R:1 pbc="T T T"
Si       0.47320821       2.20160981      -0.61422537       0.00000000
Si       1.07020414       0.09259236       2.10280216       0.00000000
Si      -0.42492465      -1.81087787      -1.48563009       0.00000000
Si      -2.31197619       0.17870130       0.59736211       0.00000000
H        2.74299168       1.01405251      -0.77897770       0.00000000
H       -0.08241111      -2.92628676       1.04000816       0.00000000
H        1.82803124       2.78322798      -0.33840308       0.00000000
Si      -1.27897678      -3.29051487       0.14908524       0.00000000
Si      -1.98813750      -0.73311517      -2.84884106       0.00000000
Si      -2.08373211       2.02414655       2.04246785       0.00000000
