10
Lattice="16.290000149 0.0 0.0 0.0 16.290000149 0.0 0.0 0.0 29.1751946751" Properties=species:S:1:pos:R:3:initial_magmoms:R:1 pbc="T T T"
Si      -1.31896873      -1.02824110       1.65709271       0.00000000
Si      -1.35202114       1.30909699      -1.42474146       0.00000000
Si       1.23932692      -1.43051777      -1.41114582       0.00000000
Si       1.41690421       1.33346683       1.34529740       0.00000000
Si       0.12168630      -2.66285774       2.57228939       0.00000000
Si      -0.06138072       2.53840556       2.69806365       0.00000000
Si      -1.42219846       0.69186889       3.47514496       0.00000000
Si       2.73809262       2.66488112      -0.07112912       0.00000000
Si      -2.74040157       2.66419694      -0.10920275       0.00000000
Si       2.62233164      -0.09330912      -2.79381664       0.00000000
