10
Lattice="16.290000149 0.0 0.0 0.0 16.290000149 0.0 0.0 0.0 29.1751946751" Properties=species:S:1:pos:R:3:initial_magmoms:R:1 pbc="T T T"
Si       1.25636626      -0.24439887      -1.93933354       0.00000000
Si      -0.34456608       2.11822130       0.93372293       0.00000000
Si       1.21582045      -1.32576166       1.51941496       0.00000000
Si      -2.06189048      -0.69691879      -0.89976300       0.00000000
H        2.56947059      -0.71358346      -1.34354689       0.00000000
H       -2.52737723       0.28745334       1.72722988       0.00000000
H        0.36610146      -3.06659253      -0.23871144       0.00000000
H       -1.26115552       2.04639869       2.14423093       0.00000000
H       -3.18726885      -0.64381339       0.11104079       0.00000000
Si       0.28298988      -2.24218820      -2.81254712       0.00000000
