10
Lattice="16.290000149 0.0 0.0 0.0 16.290000149 0.0 0.0 0.0 29.1751946751" Properties=species:S:1:pos:R:3:initial_magmoms:R:1 pbc="T T T"
Si       1.35485560      -1.35840682       1.30395615       0.00000000
Si       1.37121076       1.25312455      -1.43267711       0.00000000
Si      -1.30803814      -1.42783480      -1.32890094       0.00000000
Si      -1.19571859       1.40690215       1.47407671       0.00000000
Si      -2.56891999       2.64262898       0.02876674       0.00000000
Si       2.72119565       2.59600700      -0.11970582       0.00000000
Si      -2.64023598      -0.07011216      -2.69260789       0.00000000
Si      -2.56015597      -0.02208924       2.77211030       0.00000000
Si       2.74429488      -0.00917127       2.59781768       0.00000000
Si       0.01036044      -2.66867669       2.69564211       0.00000000
