10
Lattice="16.290000149 0.0 0.0 0.0 16.290000149 0.0 0.0 0.0 29.1751946751" Properties=species:S:1:pos:R:3:initial_magmoms:R:1 pbc="T T T"
Si      -1.27966096      -0.03683169      -0.82647491       0.00000000
Si       2.31855572      -0.19609902      -0.91525503       0.00000000
Si       2.17691417       0.21815568       1.44408461       0.00000000
Si       1.45622827       1.88268419      -1.70555271       0.00000000
H        1.30010491       2.67499721      -0.42805846       0.00000000
Si       0.65319643      -1.15453747       2.72446720       0.00000000
Si      -2.64535593      -1.41245053       0.51062426       0.00000000
Si      -0.79734664      -2.59294448       1.44761481       0.00000000
Si      -0.68418001      -1.56658325      -2.57380650       0.00000000
Si      -2.05792549       2.22992183      -0.60027963       0.00000000
