10
Lattice="16.28999089631971 0.0 0.0 0.0 16.28999089631971 0.0 0.0 0.0 34.450931932916035" Properties=species:S:1:pos:R:3:initial_magmoms:R:1 pbc="T T T"
Si       1.35677781      -1.35522049      -1.35891777       0.00000000
Si      -1.35699447       1.35620766      -1.35950344       0.00000000
Si      -1.36760903      -1.35138745       1.36580796       0.00000000
Si       1.35395964       1.37393118       1.37028658       0.00000000
Si       2.71003698       2.71322982      -0.00124023       0.00000000
Si      -2.71653218      -2.71105415      -0.00051676       0.00000000
Si      -2.71384418       2.71417464       0.00578776       0.00000000
Si       2.71313208      -2.71562012       0.00223931       0.00000000
Si       2.71399545       0.00032580      -2.71614744       0.00000000
Si      -0.00029322       2.71497285      -2.71587183       0.00000000
