10
Lattice="16.28999089631971 0.0 0.0 0.0 16.28999089631971 0.0 0.0 0.0 34.450931932916035" Properties=species:S:1:pos:R:3:initial_magmoms:R:1 pbc="T T T"
Si       1.35721764       1.35554629      -1.35722967       0.00000000
Si      -1.35677781       1.35522049       1.35891777       0.00000000
Si      -1.35713619      -1.35968233      -1.35729857       0.00000000
Si       1.35635427      -1.36039964       1.36115708       0.00000000
Si      -2.71377228       2.71142815      -0.00058567       0.00000000
Si      -0.00013032       2.71243813      -2.71459715       0.00000000
Si      -2.71504127      -0.00258197      -2.71432154       0.00000000
Si       2.71498914      -0.00252495      -2.71487276       0.00000000
Si       2.71652040       2.71341553      -0.00013780       0.00000000
Si      -2.71451510      -2.71699348      -0.00010335       0.00000000
