10
Lattice="16.28999089631971 0.0 0.0 0.0 16.28999089631971 0.0 0.0 0.0 34.450931932916035" Properties=species:S:1:pos:R:3:initial_magmoms:R:1 pbc="T T T"
Si       0.07012845       2.30962715      -0.41857906       0.00000000
Si      -2.08272537      -0.60443719       0.93661801       0.00000000
Si       1.65612285      -0.87333785       1.45327892       0.00000000
Si       0.74960064      -0.46691701      -2.24237796       0.00000000
Si       2.14096212       1.55261456      -1.81745993       0.00000000
Si      -2.79737582       1.61213822       1.44690550       0.00000000
Si      -2.24834580       2.79172970      -0.78741094       0.00000000
Si       0.75043143       3.23913455       1.62642941       0.00000000
Si       0.60683508      -2.73975876       2.45035835       0.00000000
Si      -1.53591894      -1.85749236       2.90535207       0.00000000
