10
Lattice="16.28999089631971 0.0 0.0 0.0 16.28999089631971 0.0 0.0 0.0 34.450931932916035" Properties=species:S:1:pos:R:3:initial_magmoms:R:1 pbc="T T T"
Si      -2.31189309       0.10246410      -0.35198537       0.00000000
Si       0.97293654      -0.41239764      -2.12321212       0.00000000
Si      -0.12595428      -1.57358631       1.77577428       0.00000000
Si       0.54305973       2.00611350       1.28877563       0.00000000
Si      -2.00513610      -0.52446307       2.88767873       0.00000000
Si      -2.92892571       1.25141409       1.61664534       0.00000000
Si       3.04183170      -1.30179254      -1.50254379       0.00000000
Si       1.99399374       0.98668530       2.93783931       0.00000000
Si       1.12814766       1.69275906      -3.10527094       0.00000000
Si      -2.83203279       1.40142870      -2.28902455       0.00000000
