10
Lattice="16.28999089631971 0.0 0.0 0.0 16.28999089631971 0.0 0.0 0.0 34.450931932916035" Properties=species:S:1:pos:R:3:initial_magmoms:R:1 pbc="T T T"
Si       0.42997455       0.69321118       2.17688670       0.00000000
Si      -1.62232110      -1.61590351       0.57064556       0.00000000
Si      -0.92378961       1.77587716      -1.27103339       0.00000000
Si       1.87918182      -1.04912324      -1.11190445       0.00000000
Si      -0.30675699       0.62692717      -3.23966410       0.00000000
Si       2.16132462      -0.90839719       2.51333469       0.00000000
Si      -1.19097819      -3.03674989      -1.32801527       0.00000000
Si       2.00513610       0.52446307      -2.88767873       0.00000000
Si      -3.56096142      -0.22284720       0.02504584       0.00000000
Si       3.48228072      -0.74748131       0.61605191       0.00000000
