10
Lattice="16.28999089631971 0.0 0.0 0.0 16.28999089631971 0.0 0.0 0.0 34.450931932916035" Properties=species:S:1:pos:R:3:initial_magmoms:R:1 pbc="T T T"
Si       0.41787108       0.23348457      -2.28137644       0.00000000
Si      -0.21343158       2.27289483       0.63772156       0.00000000
Si      -2.46032757      -0.09783774      -0.21549070       0.00000000
Si       1.60217037      -2.00148714       1.07728124       0.00000000
Si      -0.58430601      -1.83060504      -2.76596352       0.00000000
Si      -2.65673610      -2.03719482      -1.52493690       0.00000000
Si      -0.13624956       2.06664714       3.04966886       0.00000000
Si      -2.10531960      -1.46684934       2.94160071       0.00000000
Si       1.09877679       3.67652268      -0.73290954       0.00000000
Si       2.73466746       0.32384520      -2.92423119       0.00000000
