10
Lattice="16.28999089631971 0.0 0.0 0.0 16.28999089631971 0.0 0.0 0.0 34.450931932916035" Properties=species:S:1:pos:R:3:initial_magmoms:R:1 pbc="T T T"
Si       1.34586351       1.34211681      -1.36418877       0.00000000
Si       1.47532014      -1.21855716       1.39553913       0.00000000
Si      -1.33279893       1.33882623       1.43302177       0.00000000
Si      -1.37305152      -1.37404521      -1.36267292       0.00000000
Si      -0.18759564      -2.24300268       2.85491587       0.00000000
Si      -1.99202265      -0.40249332       3.03206266       0.00000000
Si       2.70544320       2.68912062       0.01767334       0.00000000
Si      -0.00879660       2.70016524      -2.72059162       0.00000000
Si       2.70179424      -0.01461213      -2.72141844       0.00000000
Si      -2.73913092       2.69347005       0.02676839       0.00000000
