10
Lattice="16.28999089631971 0.0 0.0 0.0 16.28999089631971 0.0 0.0 0.0 34.450931932916035" Properties=species:S:1:pos:R:3:initial_magmoms:R:1 pbc="T T T"
Si       0.71465044      -2.21657541      -0.51028749       0.00000000
Si      -2.07764193       0.32149944       1.12923328       0.00000000
Si       1.78444732       0.66591891       1.48617958       0.00000000
Si       0.54903001       1.17959148      -2.23431644       0.00000000
Si       2.86750426       0.69748893      -1.86548456       0.00000000
Si       2.79737582      -1.61213822      -1.44690550       0.00000000
Si       0.98884373       2.47972896       2.71845566       0.00000000
Si      -1.75565379      -0.11591964       3.44099546       0.00000000
Si      -2.56841076       2.65344552       1.25336006       0.00000000
Si       3.54780724       1.62699633       0.17952391       0.00000000
