10
Lattice="16.28999089631971 0.0 0.0 0.0 16.28999089631971 0.0 0.0 0.0 34.450931932916035" Properties=species:S:1:pos:R:3:initial_magmoms:R:1 pbc="T T T"
Si       1.55890413       1.67871708       0.34988386       0.00000000
Si       0.98539839      -1.70432496       1.29153171       0.00000000
Si      -1.89438039       1.12317921       0.88869674       0.00000000
Si       0.02634093      -0.81335970      -2.28203101       0.00000000
Si      -2.82067866       1.36374993      -1.21229452       0.00000000
Si       3.60136062       0.65858841      -0.13408310       0.00000000
Si       1.66630410       1.73871315       2.83999861       0.00000000
Si       0.94496661       3.36551400      -1.30017890       0.00000000
Si       3.30219477      -1.61396433       0.64867696       0.00000000
Si      -0.01677870      -3.76841457       0.80694463       0.00000000
