10
Lattice="16.28999089631971 0.0 0.0 0.0 16.28999089631971 0.0 0.0 0.0 34.450931932916035" Properties=species:S:1:pos:R:3:initial_magmoms:R:1 pbc="T T T"
Si       1.40423058      -1.26529317      -1.33355842       0.00000000
Si      -1.38194586       1.26123696      -1.37504426       0.00000000
Si       1.36031274       1.33744158       1.33625249       0.00000000
Si      -1.35265644      -1.37979558       1.32905224       0.00000000
Si      -0.43290675      -2.13819282      -2.55592606       0.00000000
Si      -2.39200731      -0.65298465      -2.50354511       0.00000000
Si       0.08961129       2.54552427      -2.65405477       0.00000000
Si       0.00640197       2.69539227       2.69089834       0.00000000
Si      -2.70959715      -0.01940139       2.69003707       0.00000000
Si       2.71881729      -0.01928736       2.69027822       0.00000000
