10
Lattice="16.28999089631971 0.0 0.0 0.0 16.28999089631971 0.0 0.0 0.0 34.450931932916035" Properties=species:S:1:pos:R:3:initial_magmoms:R:1 pbc="T T T"
Si      -1.34416935      -1.35009891      -1.38630628       0.00000000
Si       1.36821339       1.36622601      -1.38420477       0.00000000
Si       1.40633199      -1.35464382       1.40625338       0.00000000
Si      -1.28119221       1.40957370       1.54378157       0.00000000
Si       2.24650503       0.40550697       2.70512314       0.00000000
Si       0.73801845       2.32543008       2.77650551       0.00000000
Si      -2.67717028       2.72319930      -0.00768256       0.00000000
Si      -2.69186386      -2.71200807       0.01081760       0.00000000
Si       2.73913092      -2.69347005      -0.02676839       0.00000000
Si      -2.70167369       0.00601101      -2.74701549       0.00000000
