10
Lattice="16.28999089631971 0.0 0.0 0.0 16.28999089631971 0.0 0.0 0.0 34.450931932916035" Properties=species:S:1:pos:R:3:initial_magmoms:R:1 pbc="T T T"
Si       0.20437434      -2.02518909      -1.16606134       0.00000000
Si       1.40103774      -0.19122831       1.87320157       0.00000000
Si      -2.28463992       0.02345760       0.75247768       0.00000000
Si       0.88306461       2.01693006      -1.00858605       0.00000000
Si       0.87622281       1.96778313       2.70102347       0.00000000
Si       0.26568990       3.33685989       0.87812029       0.00000000
Si      -3.30887367      -0.42652107      -1.31392483       0.00000000
Si      -2.02839822      -2.33673534      -1.90338060       0.00000000
Si       0.81831186      -3.71198601       0.48400141       0.00000000
Si       3.58094925      -0.98311779       1.36790947       0.00000000
