10
Lattice="16.28999089631971 0.0 0.0 0.0 16.28999089631971 0.0 0.0 0.0 34.450931932916035" Properties=species:S:1:pos:R:3:initial_magmoms:R:1 pbc="T T T"
Si       1.34820927       1.33498490      -1.35920371       0.00000000
Si      -1.35666378       1.35598620       1.35478366       0.00000000
Si       1.35643572      -1.35775521       1.35471475       0.00000000
Si      -1.37710773      -1.32820515      -1.37467908       0.00000000
Si      -0.04411332       2.64261008      -2.70470973       0.00000000
Si      -0.04201191      -2.66147649      -2.74957520       0.00000000
Si      -0.00029322       2.71419160       2.71256454       0.00000000
Si       2.71456560      -0.00063531       2.71259899       0.00000000
Si      -2.71533123      -0.00055386       2.71270235       0.00000000
Si       0.00011403      -2.71599912       2.71321911       0.00000000
