10
Lattice="16.28999089631971 0.0 0.0 0.0 16.28999089631971 0.0 0.0 0.0 34.450931932916035" Properties=species:S:1:pos:R:3:initial_magmoms:R:1 pbc="T T T"
Si      -1.35529542      -1.35645201      -1.35757418       0.00000000
Si       1.35708732      -1.35682668       1.35678181       0.00000000
Si      -1.35790182       1.35767376       1.35685071       0.00000000
Si       1.35632169       1.35824391      -1.35850436       0.00000000
Si      -0.00138465      -2.71440270      -2.71222003       0.00000000
Si       0.00110772       2.71397916       2.71394258       0.00000000
Si       0.00211770      -2.71461447       2.71397703       0.00000000
Si       2.71567332       0.00272043       2.71328801       0.00000000
Si      -2.71490769      -2.71412577      -0.00013780       0.00000000
Si      -0.00011403       2.71599912      -2.71321911       0.00000000
