10
Lattice="16.28999089631971 0.0 0.0 0.0 16.28999089631971 0.0 0.0 0.0 34.450931932916035" Properties=species:S:1:pos:R:3:initial_magmoms:R:1 pbc="T T T"
Si      -1.24947558       0.49068738       1.92718621       0.00000000
Si       0.27471456      -1.40612022       1.87595764       0.00000000
Si       1.76215446       1.55432664      -0.27088783       0.00000000
Si      -0.89617806      -0.90844443      -2.14729334       0.00000000
Si      -1.12099635      -3.12121287       1.02553591       0.00000000
Si       0.87301368       2.66499513      -2.16145268       0.00000000
Si       0.61230852      -2.82836754      -2.21867571       0.00000000
Si      -0.17045856       0.98101638      -3.53945627       0.00000000
Si       3.66155217       0.28064412      -0.20891057       0.00000000
Si       2.04628464       2.96660448       1.53420421       0.00000000
