10
Lattice="16.28999089631971 0.0 0.0 0.0 16.28999089631971 0.0 0.0 0.0 34.450931932916035" Properties=species:S:1:pos:R:3:initial_magmoms:R:1 pbc="T T T"
Si      -0.84222558       0.72915669       2.12738069       0.00000000
Si      -1.19568600       0.90121167      -1.91878018       0.00000000
Si       2.27061423       0.94016106      -0.25607392       0.00000000
Si      -0.21076002      -2.47966380       0.02849094       0.00000000
Si       3.49803315      -0.19914525       1.42709620       0.00000000
Si       0.86661171      -3.29504346      -1.87316712       0.00000000
Si      -0.10937106       2.94401255       2.62874538       0.00000000
Si       2.91263571       0.82458351      -2.58499267       0.00000000
Si       0.08185725      -0.42759621       3.96788830       0.00000000
Si      -0.14639823       2.76763257      -2.91585961       0.00000000
