10
Lattice="16.28999089631971 0.0 0.0 0.0 16.28999089631971 0.0 0.0 0.0 34.450931932916035" Properties=species:S:1:pos:R:3:initial_magmoms:R:1 pbc="T T T"
Si       1.35169533       1.33705062       1.37442414       0.00000000
Si       1.41734403      -1.29620507      -1.38178976       0.00000000
Si      -1.36026387      -1.37918471       1.36560470       0.00000000
Si      -1.38613239       1.34447886      -1.51210392       0.00000000
Si      -0.49627485      -2.12329236      -2.46205204       0.00000000
Si      -2.38495374      -0.49370103      -2.64755870       0.00000000
Si       2.70793557       2.68444539      -0.00714168       0.00000000
Si      -2.72174949       2.67786423      -0.00064423       0.00000000
Si      -0.00128691       2.69182476       2.73041358       0.00000000
Si       2.71288773      -0.02182860       2.72958676       0.00000000
