10
Lattice="16.28999089631971 0.0 0.0 0.0 16.28999089631971 0.0 0.0 0.0 34.450931932916035" Properties=species:S:1:pos:R:3:initial_magmoms:R:1 pbc="T T T"
Si       1.35698958      -1.35752255      -1.35753973       0.00000000
Si      -1.35635427      -1.35890720       1.35702297       0.00000000
Si      -1.35786924       1.35730436      -1.35757418       0.00000000
Si       1.35726651       1.35818076       1.35902112       0.00000000
Si      -0.00107514      -2.71495196       2.71356362       0.00000000
Si       2.71467963      -2.71488680      -0.00024116       0.00000000
Si      -2.71423980      -0.00090105      -2.71535507       0.00000000
Si       2.71500543       2.71459367      -0.00006890       0.00000000
Si       2.71494027      -0.00074099      -2.71494166       0.00000000
Si      -0.00114030      -2.71464245      -2.71542397       0.00000000
