10
Lattice="16.28999089631971 0.0 0.0 0.0 16.28999089631971 0.0 0.0 0.0 34.450931932916035" Properties=species:S:1:pos:R:3:initial_magmoms:R:1 pbc="T T T"
Si      -1.35795069      -1.35678156       1.35740193       0.00000000
Si       1.35718506       1.35847052       1.35764308       0.00000000
Si       1.35715248      -1.35699333      -1.35964124       0.00000000
Si      -1.35769005       1.35933063      -1.36460218       0.00000000
Si      -0.00026064      -2.71414581       2.71470050       0.00000000
Si       2.71533123      -2.71368969      -0.00003445       0.00000000
Si       2.71479366       0.00069960       2.71483831       0.00000000
Si      -2.71494027       0.00074099       2.71494166       0.00000000
Si      -2.71608057      -2.71390146      -0.00048231       0.00000000
Si       0.00006516       2.71533466       2.71487276       0.00000000
