10
Lattice="16.28999089631971 0.0 0.0 0.0 16.28999089631971 0.0 0.0 0.0 34.450931932916035" Properties=species:S:1:pos:R:3:initial_magmoms:R:1 pbc="T T T"
Si       1.35711990      -1.35686415      -1.35722967       0.00000000
Si      -1.35741312       1.35803214      -1.35726412       0.00000000
Si      -1.35773892      -1.35641291       1.35909002       0.00000000
Si       1.35811359       1.35858600       1.35764308       0.00000000
Si       2.71472850      -2.71463506      -0.00003445       0.00000000
Si      -2.71500543      -2.71459367       0.00006890       0.00000000
Si       0.00122175       2.71500543      -2.71466605       0.00000000
Si      -0.00006516      -2.71533466      -2.71487276       0.00000000
Si       2.71515204       2.71516833       0.00013780       0.00000000
Si      -2.71616202       0.00131949      -2.71435599       0.00000000
