10
Lattice="16.28999089631971 0.0 0.0 0.0 16.28999089631971 0.0 0.0 0.0 34.450931932916035" Properties=species:S:1:pos:R:3:initial_magmoms:R:1 pbc="T T T"
Si      -1.57852448      -0.75979655       1.52986339       0.00000000
Si      -0.24065706      -0.68024597      -2.29109161       0.00000000
Si       1.93864032      -1.39305631       0.54559971       0.00000000
Si      -0.92374793       2.30592118       0.50243267       0.00000000
Si      -0.52295233       0.46884901       3.35149188       0.00000000
Si       2.63717181       1.99872436      -1.29607923       0.00000000
Si       3.56096142       0.22284720      -0.02504584       0.00000000
Si      -0.80603639       1.36690042      -3.24693325       0.00000000
Si      -3.15963188       1.91968528      -0.27450518       0.00000000
Si       0.71068057       2.90651719      -2.27303931       0.00000000
