10
Lattice="16.28999089631971 0.0 0.0 0.0 16.28999089631971 0.0 0.0 0.0 34.450931932916035" Properties=species:S:1:pos:R:3:initial_magmoms:R:1 pbc="T T T"
Si       1.72463859       1.43992197       0.70080125       0.00000000
Si      -2.19243852       0.83096919       0.21121878       0.00000000
Si       0.44400024      -1.95900282       1.28133423       0.00000000
Si       0.47534220      -0.22270059      -2.33222604       0.00000000
Si       3.55182273       0.41078493      -0.37954613       0.00000000
Si       2.72433960      -0.83204433      -2.22587596       0.00000000
Si      -3.44979846      -0.34450092      -1.47329493       0.00000000
Si      -0.90652221      -3.67049538       0.27667559       0.00000000
Si       0.38247291       1.98521343      -3.21730543       0.00000000
Si      -3.03226947       0.35846145       2.38393692       0.00000000
