10
Lattice="16.28999089631971 0.0 0.0 0.0 16.28999089631971 0.0 0.0 0.0 34.450931932916035" Properties=species:S:1:pos:R:3:initial_magmoms:R:1 pbc="T T T"
Si       2.07656775      -1.03790106       0.30172143       0.00000000
Si      -1.14201045      -1.37481084      -1.52290430       0.00000000
Si      -0.88231527      -0.56452995       2.13616568       0.00000000
Si      -0.42182955       2.37418605      -0.15502928       0.00000000
Si      -3.18446694      -0.35468217      -1.03893733       0.00000000
Si      -3.07706697      -0.29468610       1.45117742       0.00000000
Si       0.76797576       3.29997933       1.70966290       0.00000000
Si      -0.05432715      -2.68951158       2.68707084       0.00000000
Si      -0.30217950      -0.90230310      -3.69562244       0.00000000
Si       3.73254399       0.04958676      -0.88662968       0.00000000
