10
Lattice="16.28999089631971 0.0 0.0 0.0 16.28999089631971 0.0 0.0 0.0 34.450931932916035" Properties=species:S:1:pos:R:3:initial_magmoms:R:1 pbc="T T T"
Si       2.04501402      -1.10591181      -0.38271562       0.00000000
Si      -0.44400024       1.95900282      -1.28133423       0.00000000
Si      -1.35052245      -1.71149256      -1.00465864       0.00000000
Si      -0.25381449       0.34746570       2.37294707       0.00000000
Si       1.40572926      -3.10485119       0.74152227       0.00000000
Si       1.28063835       3.39892479      -0.58053298       0.00000000
Si       2.22257502      -1.17848376      -2.71222003       0.00000000
Si      -3.52525374      -1.29160152      -0.08309569       0.00000000
Si       1.45269333      -0.90370404       3.46366418       0.00000000
Si      -0.25769151       2.65437405       2.92722842       0.00000000
