10
Lattice="16.28999089631971 0.0 0.0 0.0 16.28999089631971 0.0 0.0 0.0 34.450931932916035" Properties=species:S:1:pos:R:3:initial_magmoms:R:1 pbc="T T T"
Si       1.77093966      -0.88314606       1.28678372       0.00000000
Si       1.41593169       0.48586554      -1.87030769       0.00000000
Si      -1.14412766       1.71088983       1.24101921       0.00000000
Si      -1.74451469      -1.54981431      -0.66266405       0.00000000
Si       0.13460427      -2.01259203       2.55920755       0.00000000
Si      -2.65636373       2.39396211      -0.36159718       0.00000000
Si       0.43317228       2.53617381      -2.52349772       0.00000000
Si      -1.08751226      -3.31232275       1.01296132       0.00000000
Si       1.21952316      -1.45349154      -3.17975389       0.00000000
Si      -2.65247042       0.55723203       2.55405024       0.00000000
