10
Lattice="16.28999089631971 0.0 0.0 0.0 16.28999089631971 0.0 0.0 0.0 34.450931932916035" Properties=species:S:1:pos:R:3:initial_magmoms:R:1 pbc="T T T"
Si      -1.65957633      -0.95374692       1.42638793       0.00000000
Si       1.03068459       1.65815910       1.41736178       0.00000000
Si      -1.01807613       2.04703398      -1.03862728       0.00000000
Si       1.85178204      -1.88294481      -0.10896836       0.00000000
Si      -0.06693561      -0.48661488      -2.89356984       0.00000000
Si       0.76105251      -2.61159651      -2.34266468       0.00000000
Si       2.38516551       0.29422998       2.72982589       0.00000000
Si      -0.34888293      -2.43807543       2.71954572       0.00000000
Si       2.48236794       2.83701753       0.03978279       0.00000000
Si       0.71426763       3.67101666      -1.16013578       0.00000000
