10
Lattice="16.28999089631971 0.0 0.0 0.0 16.28999089631971 0.0 0.0 0.0 34.450931932916035" Properties=species:S:1:pos:R:3:initial_magmoms:R:1 pbc="T T T"
Si      -1.35448092       1.36392912      -1.31246411       0.00000000
Si       1.34224713       1.35322659       1.36613180       0.00000000
Si      -1.36896273      -1.36275624       1.36141202       0.00000000
Si       1.37634210      -1.31401656      -1.48803993       0.00000000
Si      -0.53338347      -2.17717479      -2.83879425       0.00000000
Si      -2.38516551      -0.29422998      -2.72982589       0.00000000
Si       0.09720243       2.54278755      -2.69004310       0.00000000
Si       2.70239697       2.68923465      -0.00627007       0.00000000
Si       2.69741223      -0.00188964       2.72036424       0.00000000
Si       2.69563662      -2.72572425      -0.01677761       0.00000000
