10
Lattice="16.28999089631971 0.0 0.0 0.0 16.28999089631971 0.0 0.0 0.0 34.450931932916035" Properties=species:S:1:pos:R:3:initial_magmoms:R:1 pbc="T T T"
Si       1.35601218      -1.35868374      -1.36229396       0.00000000
Si      -1.35762489       1.35985662      -1.36367200       0.00000000
Si      -1.35694071      -1.36852290       1.37528197       0.00000000
Si       1.37070576       1.36361961       1.38237887       0.00000000
Si       2.71438641       2.71303434      -0.00571886       0.00000000
Si      -2.71691136       2.71507059      -0.00647678       0.00000000
Si      -2.71652040      -2.71552671      -0.00658013       0.00000000
Si       2.71743264      -2.71622718      -0.00299723       0.00000000
Si       2.71448415      -0.00065160      -2.71986815       0.00000000
Si      -0.00115659       2.71513575      -2.72028156       0.00000000
