10
Lattice="16.28999089631971 0.0 0.0 0.0 16.28999089631971 0.0 0.0 0.0 34.450931932916035" Properties=species:S:1:pos:R:3:initial_magmoms:R:1 pbc="T T T"
Si       1.89239301       0.72006687      -1.32963446       0.00000000
Si      -0.68100345      -1.87644510      -1.39550468       0.00000000
Si       1.22639265      -0.65497203       2.19404328       0.00000000
Si      -2.03683644       1.82604384      -0.12006156       0.00000000
Si       1.46844576       1.86259860       2.20510203       0.00000000
Si      -2.38501890      -1.78579125       1.69223072       0.00000000
Si       0.51458481       2.11183560      -2.82149845       0.00000000
Si      -2.21306166      -0.62030691      -2.82859535       0.00000000
Si      -0.87946452       3.47007951      -1.36642808       0.00000000
Si      -0.52364205      -1.90503405       3.28989358       0.00000000
