10
Lattice="16.28999089631971 0.0 0.0 0.0 16.28999089631971 0.0 0.0 0.0 34.450931932916035" Properties=species:S:1:pos:R:3:initial_magmoms:R:1 pbc="T T T"
Si      -1.48343419       1.20464550      -1.32883175       0.00000000
Si      -1.34852041      -1.34581464       1.35337806       0.00000000
Si       1.36464588       1.36932111       1.34697018       0.00000000
Si       1.39427739      -1.26006408      -1.42177698       0.00000000
Si       0.32529501       2.09613204      -2.48562717       0.00000000
Si       2.28439557       0.61092387      -2.53800812       0.00000000
Si      -2.59974179      -0.32853672      -2.69184078       0.00000000
Si      -2.69517641       2.71425609       0.00195337       0.00000000
Si       0.00413766      -2.70202230       2.70833397       0.00000000
Si       2.72815146      -2.68499925      -0.01824867       0.00000000
