10
Lattice="16.28999089631971 0.0 0.0 0.0 16.28999089631971 0.0 0.0 0.0 34.450931932916035" Properties=species:S:1:pos:R:3:initial_magmoms:R:1 pbc="T T T"
Si       1.40035356      -0.52737246       1.83003453       0.00000000
Si       1.01590956      -0.50422437      -2.08786545       0.00000000
Si      -1.77609870      -1.58027661      -0.12316215       0.00000000
Si      -0.85237425       2.17310229       0.52014046       0.00000000
Si       0.70494975       1.07932653       3.42817970       0.00000000
Si      -3.20733810       1.72747305       0.58160096       0.00000000
Si       1.73444517      -2.79624366      -1.82352330       0.00000000
Si      -0.84546729      -0.38498157      -3.68552831       0.00000000
Si      -2.39348970      -1.67871708      -2.49834853       0.00000000
Si      -3.78573084      -0.63149814       0.63872063       0.00000000
