10
Lattice="16.28999089631971 0.0 0.0 0.0 16.28999089631971 0.0 0.0 0.0 34.450931932916035" Properties=species:S:1:pos:R:3:initial_magmoms:R:1 pbc="T T T"
Si       0.93866238      -1.28402667      -1.68196434       0.00000000
Si       0.64265679       2.22720138       0.07420735       0.00000000
Si      -2.32640748      -0.13457169      -0.07069335       0.00000000
Si       1.13938776      -0.88513344       1.83613235       0.00000000
Si       3.02045922       1.90237878       0.54084548       0.00000000
Si      -0.79597827      -1.38714237      -3.24073208       0.00000000
Si      -2.79513594      -0.87159645       2.13024012       0.00000000
Si       1.35923760      -3.19619574       1.39863972       0.00000000
Si      -2.75001264      -1.75264110      -1.86700040       0.00000000
Si      -0.59968377       3.17132091       1.94951043       0.00000000
