10
Lattice="16.28999089631971 0.0 0.0 0.0 16.28999089631971 0.0 0.0 0.0 34.450931932916035" Properties=species:S:1:pos:R:3:initial_magmoms:R:1 pbc="T T T"
Si      -0.24350292       2.28499830      -0.25128524       0.00000000
Si      -0.86908779       0.29312226       2.15993684       0.00000000
Si       2.32240014      -0.43150581       0.14565862       0.00000000
Si      -1.18980531      -0.92579328      -1.86469218       0.00000000
Si       0.89901252      -0.54087687       3.35985541       0.00000000
Si       2.74471839      -0.93933027      -2.15879995       0.00000000
Si      -3.36971682      -0.13390380      -1.35940008       0.00000000
Si      -2.60143155      -1.33086042       2.28144534       0.00000000
Si       1.71010791       3.22040268       0.87174687       0.00000000
Si       3.28484592       1.45717308       1.19968547       0.00000000
