10
Lattice="16.28999089631971 0.0 0.0 0.0 16.28999089631971 0.0 0.0 0.0 34.450931932916035" Properties=species:S:1:pos:R:3:initial_magmoms:R:1 pbc="T T T"
Si       1.35907470       1.34641737       1.37404174       0.00000000
Si      -1.35581670      -1.36997271       1.37431734       0.00000000
Si       1.38116394      -1.37927430      -1.37905435       0.00000000
Si      -1.41149592       1.35470898      -1.43858559       0.00000000
Si      -2.72238480       2.68224935       0.01928220       0.00000000
Si       2.72152143       2.69689095      -0.00317638       0.00000000
Si       0.00192222       2.70341070       2.73368298       0.00000000
Si      -2.72756502      -2.71248048       0.01162720       0.00000000
Si      -2.71415835      -0.01049076       2.73320066       0.00000000
Si       2.71725345      -0.01027899       2.73364853       0.00000000
