10
Lattice="16.28999089631971 0.0 0.0 0.0 16.28999089631971 0.0 0.0 0.0 34.450931932916035" Properties=species:S:1:pos:R:3:initial_magmoms:R:1 pbc="T T T"
Si      -1.35646830      -1.35527913       1.35660956       0.00000000
Si      -1.35769005       1.35736425      -1.35729857       0.00000000
Si       1.35757602      -1.35827649      -1.35709187       0.00000000
Si       1.35894438       1.35746199       1.35688516       0.00000000
Si       0.00026064       2.71414581      -2.71470050       0.00000000
Si       0.00099369       2.71219899       2.71735323       0.00000000
Si      -2.71575477      -0.00006516       2.71380478       0.00000000
Si      -2.71467963       2.71488680       0.00024116       0.00000000
Si      -2.71505430      -2.71482624       0.00010335       0.00000000
Si       2.71505430       2.71484542       0.00013780       0.00000000
