10
Lattice="16.28999089631971 0.0 0.0 0.0 16.28999089631971 0.0 0.0 0.0 34.450931932916035" Properties=species:S:1:pos:R:3:initial_magmoms:R:1 pbc="T T T"
Si       1.34368065       1.34941473      -1.38809773       0.00000000
Si      -1.37070576      -1.36361961      -1.38237887       0.00000000
Si      -1.39404933       1.35824391       1.45507037       0.00000000
Si       1.37780820      -1.39176873       1.49186399       0.00000000
Si      -0.51458481      -2.11183560       2.82149845       0.00000000
Si      -2.55142125      -0.28579176       2.70143689       0.00000000
Si       2.69482212       2.69241120      -0.00833713       0.00000000
Si       2.69268813      -2.73067641      -0.00844048       0.00000000
Si      -2.73408102       2.70633915      -0.00471978       0.00000000
Si       2.69939961      -0.00464265      -2.74549965       0.00000000
