10
Lattice="16.28999089631971 0.0 0.0 0.0 16.28999089631971 0.0 0.0 0.0 34.450931932916035" Properties=species:S:1:pos:R:3:initial_magmoms:R:1 pbc="T T T"
Si       1.43291727       0.60155712      -1.72709508       0.00000000
Si      -0.47151405       1.97023219       1.18139202       0.00000000
Si      -1.93253157      -1.11347037      -0.91143436       0.00000000
Si       0.78696990      -1.24317135       1.94982048       0.00000000
Si      -2.11198221       0.71969220       2.36423098       0.00000000
Si       0.67372182      -1.19404071      -3.18633402       0.00000000
Si      -2.95743321      -1.36234899       1.27434068       0.00000000
Si      -1.03418694      -2.76369624      -2.39847522       0.00000000
Si      -0.45537066      -0.29905182       3.82512356       0.00000000
Si       3.69695034       0.21346416      -1.17763686       0.00000000
