10
Lattice="16.28999089631971 0.0 0.0 0.0 16.28999089631971 0.0 0.0 0.0 34.450931932916035" Properties=species:S:1:pos:R:3:initial_magmoms:R:1 pbc="T T T"
Si       1.64046816       1.25053999      -1.18283896       0.00000000
Si       1.65661155      -1.01874402       1.46089259       0.00000000
Si      -1.82485467       1.61163716      -0.34605980       0.00000000
Si      -0.84545100      -2.08204119      -1.08989029       0.00000000
Si       2.11198221      -0.71969220      -2.36423098       0.00000000
Si       2.89895211      -1.96286355      -0.41441049       0.00000000
Si       0.17945064      -1.83316257      -3.27566534       0.00000000
Si       0.40746177      -1.85086980       3.25502922       0.00000000
Si      -3.14581077       1.45072128       1.55122298       0.00000000
Si      -3.23672526      -2.06161353      -0.73487324       0.00000000
