10
Lattice="16.28999089631971 0.0 0.0 0.0 16.28999089631971 0.0 0.0 0.0 34.450931932916035" Properties=species:S:1:pos:R:3:initial_magmoms:R:1 pbc="T T T"
Si       0.24350292      -2.28499830       0.25128524       0.00000000
Si       1.24914978       0.83212578      -1.79413664       0.00000000
Si      -2.00598318       0.92357784       0.99952545       0.00000000
Si       1.95361083       0.93540438       1.12303211       0.00000000
Si      -0.62558487      -1.99187604       2.41122207       0.00000000
Si      -1.67169609      -0.01840770       3.24541741       0.00000000
Si      -3.65102883      -0.25989066      -0.28029294       0.00000000
Si      -0.94630239      -3.21079158      -1.61340695       0.00000000
Si       3.15527526       1.84599909      -0.77132235       0.00000000
Si       1.21093344       3.12568026       1.66811506       0.00000000
