10
Lattice="16.28999089631971 0.0 0.0 0.0 16.28999089631971 0.0 0.0 0.0 34.450931932916035" Properties=species:S:1:pos:R:3:initial_magmoms:R:1 pbc="T T T"
Si      -1.40279706       1.22895018      -1.37704586       0.00000000
Si      -1.35967743      -1.34870774       1.35111118       0.00000000
Si       1.35676708       1.36533006       1.35514195       0.00000000
Si       1.38427763      -1.34087388      -1.37188855       0.00000000
Si       0.10554570       2.38260798      -2.69007689       0.00000000
Si       2.70474992      -2.70785451      -0.00892280       0.00000000
Si       2.70528749       2.71114470       0.00176389       0.00000000
Si      -0.00166878      -2.70517486       2.71157925       0.00000000
Si       2.70942515       0.00912240       2.71009786       0.00000000
Si      -2.71370223      -2.71225961      -0.02672705       0.00000000
