10
Lattice="16.28999089631971 0.0 0.0 0.0 16.28999089631971 0.0 0.0 0.0 34.450931932916035" Properties=species:S:1:pos:R:3:initial_magmoms:R:1 pbc="T T T"
Si      -1.37179719      -1.33235747       1.35406019       0.00000000
Si       1.35656604      -1.35794580      -1.36112263       0.00000000
Si      -1.35749457       1.35907470      -1.35995130       0.00000000
Si       1.35803214       1.35536058       1.39188733       0.00000000
Si       2.71320894      -2.71010933      -0.00182590       0.00000000
Si       2.71589694       2.71511946       0.00447862       0.00000000
Si       2.71405754       0.00047241      -2.71714652       0.00000000
Si      -2.71494027      -2.71679279      -0.00041341       0.00000000
Si      -0.00087966      -2.71414636      -2.71762883       0.00000000
Si      -0.00045612       2.71565703      -2.71745658       0.00000000
