10
Lattice="16.28999089631971 0.0 0.0 0.0 16.28999089631971 0.0 0.0 0.0 34.450931932916035" Properties=species:S:1:pos:R:3:initial_magmoms:R:1 pbc="T T T"
Si      -1.63468521       1.74037261       0.34836802       0.00000000
Si       1.53380124       0.63462696      -1.76450882       0.00000000
Si       1.34491869      -1.22026062       1.79206958       0.00000000
Si      -2.11559859      -0.89819103      -1.50168251       0.00000000
Si      -0.42963246      -0.07336317      -2.98207433       0.00000000
Si       3.34440120      -0.97400469      -1.44222017       0.00000000
Si      -1.94419521       1.92573652       2.75349227       0.00000000
Si       0.50709141      -0.59333997       3.87866034       0.00000000
Si       3.64259454      -1.25104872       1.21749661       0.00000000
Si      -3.89301678       0.87337972      -1.23761597       0.00000000
