10
Lattice="16.28999089631971 0.0 0.0 0.0 16.28999089631971 0.0 0.0 0.0 34.450931932916035" Properties=species:S:1:pos:R:3:initial_magmoms:R:1 pbc="T T T"
Si      -0.63021123       0.17664876       2.26325524       0.00000000
Si       0.69708072       1.97376156      -1.12926773       0.00000000
Si      -2.23588395      -0.38623590      -0.77693785       0.00000000
Si       0.92374793      -2.30592118      -0.50243267       0.00000000
Si       1.63442850       0.60059601      -2.77547198       0.00000000
Si      -0.65477655      -3.06571773       1.02743072       0.00000000
Si       0.40079559      -1.83707217       2.84905921       0.00000000
Si      -2.87516871      -2.38517528       0.34730004       0.00000000
Si      -2.05832295      -0.45880785      -3.10644227       0.00000000
Si       0.11771154      -0.93902076      -3.74936592       0.00000000
