10
Lattice="16.28999089631971 0.0 0.0 0.0 16.28999089631971 0.0 0.0 0.0 34.450931932916035" Properties=species:S:1:pos:R:3:initial_magmoms:R:1 pbc="T T T"
Si       1.02012867      -0.98821656       1.92529141       0.00000000
Si      -2.29315959      -0.42354000      -0.68412699       0.00000000
Si       1.24235685      -0.27077238      -2.12007709       0.00000000
Si       0.76400100       2.04138135      -1.17929051       0.00000000
Si      -0.26757954       2.14360110       2.93584116       0.00000000
Si      -3.01169520       1.86847929      -0.94846914       0.00000000
Si       3.07915765       0.21756924       2.25925893       0.00000000
Si      -1.26166050       3.11854131      -2.04431944       0.00000000
Si       3.63351612      -0.17539443      -1.54915592       0.00000000
Si       1.51089750      -3.32016264       1.80116463       0.00000000
