10
Lattice="16.28999089631971 0.0 0.0 0.0 16.28999089631971 0.0 0.0 0.0 34.450931932916035" Properties=species:S:1:pos:R:3:initial_magmoms:R:1 pbc="T T T"
Si       0.11764638       0.34293708       2.31941029       0.00000000
Si      -1.72463859      -1.43992197      -0.70080125       0.00000000
Si       1.82718414      -1.02913704      -1.08034738       0.00000000
Si      -0.30292884       2.25510615      -0.76119377       0.00000000
Si       2.62855440       1.10301219      -1.59514794       0.00000000
Si      -1.24929639      -1.66262256      -3.03302729       0.00000000
Si      -1.28063835      -3.39892479       0.58053298       0.00000000
Si      -2.03756949       2.15199045      -2.31996150       0.00000000
Si      -0.10220346       2.65399938       2.75690292       0.00000000
Si       0.99970101      -2.27196630      -2.92667721       0.00000000
