10
Lattice="16.28999089631971 0.0 0.0 0.0 16.28999089631971 0.0 0.0 0.0 34.450931932916035" Properties=species:S:1:pos:R:3:initial_magmoms:R:1 pbc="T T T"
Si       1.34769451       1.36190916      -1.39712387       0.00000000
Si      -1.36593791      -1.35456237      -1.39323092       0.00000000
Si      -1.40056600       1.37384973       1.45579384       0.00000000
Si       1.46314174      -1.36974465       1.61612857       0.00000000
Si       2.70186592      -2.69480583      -0.02873209       0.00000000
Si       2.69186386       2.71200807      -0.01081760       0.00000000
Si      -2.72380270      -2.71432125      -0.00582221       0.00000000
Si      -2.73321832       2.70912474      -0.02125624       0.00000000
Si       2.70619906       0.00459378      -2.75786754       0.00000000
Si      -0.00908819      -2.71252935      -2.75852211       0.00000000
