10
Lattice="16.28999089631971 0.0 0.0 0.0 16.28999089631971 0.0 0.0 0.0 34.450931932916035" Properties=species:S:1:pos:R:3:initial_magmoms:R:1 pbc="T T T"
Si      -0.93739176      -1.89693792       1.08882335       0.00000000
Si       0.18611325      -1.08097182      -2.12080438       0.00000000
Si       1.85270961       1.12295115       1.08795518       0.00000000
Si      -1.85621292       1.63235574      -0.13316395       0.00000000
Si       0.33890581       2.28046968       2.52779135       0.00000000
Si      -2.39015025      -0.46990134       2.51905114       0.00000000
Si      -0.65474397       0.75539988      -3.40692729       0.00000000
Si      -2.60951139       1.38170151      -2.32489182       0.00000000
Si      -0.94182264       3.63905568       1.07474669       0.00000000
Si       3.03450839      -0.43877115       2.51297055       0.00000000
