10
Lattice="16.28999089631971 0.0 0.0 0.0 16.28999089631971 0.0 0.0 0.0 34.450931932916035" Properties=species:S:1:pos:R:3:initial_magmoms:R:1 pbc="T T T"
Si       1.27338429      -1.27974240       1.45065376       0.00000000
Si       0.93739176       1.89693792      -1.08882335       0.00000000
Si      -1.06605018      -1.56758670      -1.60566034       0.00000000
Si      -1.45275849       1.42703658       1.43022779       0.00000000
Si       1.12350501       0.81596610      -3.20962773       0.00000000
Si       2.48512651      -2.78935299       0.11986864       0.00000000
Si      -2.77881336      -2.57621463      -0.05154207       0.00000000
Si       2.61706410       0.09225027       2.79746202       0.00000000
Si      -0.09917352      -2.62192437       2.79677300       0.00000000
Si      -0.91882116       3.52929366      -1.22198730       0.00000000
