10
Lattice="16.28999089631971 0.0 0.0 0.0 16.28999089631971 0.0 0.0 0.0 34.450931932916035" Properties=species:S:1:pos:R:3:initial_magmoms:R:1 pbc="T T T"
Si       1.35641943      -1.35715248      -1.35771199       0.00000000
Si       1.35562122       1.35962856       1.35674736       0.00000000
Si      -1.35806472       1.35751086      -1.35750528       0.00000000
Si      -1.35847197      -1.35803214       1.35757418       0.00000000
Si      -0.00009774       2.71368594       2.71414929       0.00000000
Si      -2.71381626      -0.00053757      -2.71414929       0.00000000
Si      -0.00309510      -2.71326240      -2.71532062       0.00000000
Si       2.71449886      -2.71454931      -0.00031006       0.00000000
Si       2.71370612       0.00052128      -2.71549287       0.00000000
Si       2.71457753       2.71521720      -0.00020671       0.00000000
