10
Lattice="16.28999089631971 0.0 0.0 0.0 16.28999089631971 0.0 0.0 0.0 34.450931932916035" Properties=species:S:1:pos:R:3:initial_magmoms:R:1 pbc="T T T"
Si      -0.34166646      -0.84808998      -2.11752771       0.00000000
Si       1.40181870       1.81209960      -0.27564206       0.00000000
Si      -1.95476742       0.62630163       1.08203547       0.00000000
Si       0.84085722      -1.83637170       1.28612291       0.00000000
Si      -2.91721320      -1.26237726       0.02800862       0.00000000
Si      -0.12948921       2.64398103      -1.96149936       0.00000000
Si      -1.30640913      -3.04999299       0.76756719       0.00000000
Si       0.65474397      -0.75539988       3.40692729       0.00000000
Si      -1.20146895       0.87695586       3.27376334       0.00000000
Si       1.02447225      -2.74168845      -2.24940596       0.00000000
