10
Lattice="16.28999089631971 0.0 0.0 0.0 16.28999089631971 0.0 0.0 0.0 34.450931932916035" Properties=species:S:1:pos:R:3:initial_magmoms:R:1 pbc="T T T"
Si      -0.04228884      -1.16993151       2.12252310       0.00000000
Si      -1.61080407       1.78761573      -0.73955857       0.00000000
Si       2.14726635       1.21362129       0.51855572       0.00000000
Si       0.83311947      -1.23455394      -2.05796202       0.00000000
Si       1.30640913       3.04999299      -0.76756719       0.00000000
Si       0.88034418      -3.24180774       0.88242666       0.00000000
Si      -1.18848582       1.27979127      -3.04401714       0.00000000
Si      -0.64835829       3.67629462       0.31446828       0.00000000
Si       0.96474267       2.20190301      -2.88509491       0.00000000
Si      -0.96863598      -1.03127103      -3.48150977       0.00000000
