10
Lattice="16.28999089631971 0.0 0.0 0.0 16.28999089631971 0.0 0.0 0.0 34.450931932916035" Properties=species:S:1:pos:R:3:initial_magmoms:R:1 pbc="T T T"
Si      -0.18611325       1.08097182       2.12080438       0.00000000
Si      -0.84085722       1.83637170      -1.28612291       0.00000000
Si       2.29329710      -0.72959652      -0.53119922       0.00000000
Si      -2.14726635      -1.21362129      -0.51855572       0.00000000
Si      -1.12350501      -0.81596610       3.20962773       0.00000000
Si      -2.18955519      -2.38355280       1.60396739       0.00000000
Si       0.18361503      -0.90531675      -3.53552887       0.00000000
Si      -2.79562464       2.46267333      -0.20408743       0.00000000
Si      -1.18252368       0.98828172      -3.40365062       0.00000000
Si      -1.31414688      -2.44817523      -2.57651774       0.00000000
