10
Lattice="16.28999089631971 0.0 0.0 0.0 16.28999089631971 0.0 0.0 0.0 34.450931932916035" Properties=species:S:1:pos:R:3:initial_magmoms:R:1 pbc="T T T"
Si      -1.35571896       1.35405738       1.35740193       0.00000000
Si       1.35895631       1.35558864      -1.35695407       0.00000000
Si      -1.35562122      -1.35962856      -1.35674736       0.00000000
Si       1.35642199      -1.35962856       1.36518784       0.00000000
Si      -2.71231758       2.71362078      -0.00027561       0.00000000
Si       0.00198738       2.71363707      -2.71390813       0.00000000
Si      -2.71368594      -0.00211770      -2.71425264       0.00000000
Si       2.71667583       2.71388142       0.00027561       0.00000000
Si       2.71659926      -0.00146610      -2.71445935       0.00000000
Si       0.00079821      -2.71678104      -2.71445935       0.00000000
