10
Lattice="16.28999089631971 0.0 0.0 0.0 16.28999089631971 0.0 0.0 0.0 34.450931932916035" Properties=species:S:1:pos:R:3:initial_magmoms:R:1 pbc="T T T"
Si       0.48433428       1.62667053       1.61023746       0.00000000
Si       0.27215703      -1.86540048       1.45420910       0.00000000
Si       0.94363083      -0.12952179      -2.20513648       0.00000000
Si      -2.37780243       0.32482260      -0.46663813       0.00000000
Si      -1.88107146      -2.78751222       1.29528686       0.00000000
Si      -3.02045922      -1.90237878      -0.54084548       0.00000000
Si      -0.14164155      -2.13947973      -3.06138042       0.00000000
Si       0.56661507       3.66416087       0.54056988       0.00000000
Si      -1.71401751       2.28281544       2.43147923       0.00000000
Si       0.61382349      -1.01731050       3.57173682       0.00000000
