10
Lattice="16.28999089631971 0.0 0.0 0.0 16.28999089631971 0.0 0.0 0.0 34.450931932916035" Properties=species:S:1:pos:R:3:initial_magmoms:R:1 pbc="T T T"
Si      -0.56668023       2.20089303      -0.37582543       0.00000000
Si       0.31037337       0.21665700       2.32807474       0.00000000
Si      -1.03736349      -1.38272778      -1.64265580       0.00000000
Si       2.19229191      -1.06230348      -0.13625351       0.00000000
Si      -0.39410397       1.99383084      -2.69465005       0.00000000
Si       2.26947393      -1.26855117       2.27569379       0.00000000
Si      -0.05618421      -0.27420957      -3.45818648       0.00000000
Si      -0.05460408      -3.43303605      -0.98946577       0.00000000
Si       1.38906459       3.39734466       0.27164575       0.00000000
Si       3.50450028       0.34132437      -1.50688460       0.00000000
