10
Lattice="16.28999089631971 0.0 0.0 0.0 16.28999089631971 0.0 0.0 0.0 34.450931932916035" Properties=species:S:1:pos:R:3:initial_magmoms:R:1 pbc="T T T"
Si       1.35535705      -1.35794929      -1.35540377       0.00000000
Si       1.35551832       1.35742334       1.35647175       0.00000000
Si      -1.35864396      -1.35723253       1.35650620       0.00000000
Si      -1.35800865       1.35646712      -1.36046806       0.00000000
Si       0.00166878       2.70517486      -2.71157925       0.00000000
Si       0.01469314      -2.70226525      -2.71954775       0.00000000
Si       2.71109392       2.71429726      -0.00148139       0.00000000
Si       2.71213648      -2.71371712      -0.00120578       0.00000000
Si       2.71342339       0.00032298       2.71349472       0.00000000
Si       2.70641869      -0.00267965      -2.72050204       0.00000000
