10
Lattice="16.28999089631971 0.0 0.0 0.0 16.28999089631971 0.0 0.0 0.0 34.450931932916035" Properties=species:S:1:pos:R:3:initial_magmoms:R:1 pbc="T T T"
Si       1.38194586      -1.26123696       1.37504426       0.00000000
Si       1.47155715       1.28428731      -1.27901051       0.00000000
Si      -1.33201701       1.44181161       1.33257313       0.00000000
Si      -1.01006145      -1.91422161      -1.12850085       0.00000000
Si       0.06862977       1.26646605      -3.18492984       0.00000000
Si       0.94903911      -3.39942978      -1.18088180       0.00000000
Si       2.78617644      -2.52653013       0.04148584       0.00000000
Si       0.02928942      -2.64103254       2.70409650       0.00000000
Si      -2.68685305       0.07589511       2.70588795       0.00000000
Si       2.74225860       0.07620462       2.71129675       0.00000000
