10
Lattice="16.28999089631971 0.0 0.0 0.0 16.28999089631971 0.0 0.0 0.0 34.450931932916035" Properties=species:S:1:pos:R:3:initial_magmoms:R:1 pbc="T T T"
Si      -1.35803056      -1.35586557       1.35660956       0.00000000
Si       1.35781936       1.35703845       1.35753973       0.00000000
Si       1.35740723      -1.35759231      -1.35740193       0.00000000
Si      -1.35807943       1.35739683      -1.35740193       0.00000000
Si      -2.71155037      -0.00102627       2.71718097       0.00000000
Si      -2.71449886       2.71454931       0.00031006       0.00000000
Si      -2.71466176      -2.71500543       0.00020671       0.00000000
Si       2.71524226      -2.71474479       0.00048231       0.00000000
Si       2.71478614       2.71524978       0.00031006       0.00000000
Si       0.00074636      -2.71546155      -2.71473495       0.00000000
