10
Lattice="16.28999089631971 0.0 0.0 0.0 16.28999089631971 0.0 0.0 0.0 34.450931932916035" Properties=species:S:1:pos:R:3:initial_magmoms:R:1 pbc="T T T"
Si       1.35868911       1.35668007       1.35633395       0.00000000
Si      -1.35749150      -1.35841821       1.35602389       0.00000000
Si       1.35742012      -1.35733004      -1.35740193       0.00000000
Si      -1.35752408       1.35773892      -1.35788424       0.00000000
Si      -0.00084860      -2.71058174       2.71532062       0.00000000
Si       2.71299573      -0.00045612      -2.71535507       0.00000000
Si       0.00190180      -2.71475338      -2.71387368       0.00000000
Si      -2.71493720      -2.71461877      -0.00048231       0.00000000
Si      -2.71451366       2.71518462      -0.00031006       0.00000000
Si       2.71532520      -2.71443040      -0.00037896       0.00000000
