10
Lattice="16.28999089631971 0.0 0.0 0.0 16.28999089631971 0.0 0.0 0.0 34.450931932916035" Properties=species:S:1:pos:R:3:initial_magmoms:R:1 pbc="T T T"
Si      -1.93651936      -0.90978021       1.14680326       0.00000000
Si       1.28119221      -1.40957370      -1.54378157       0.00000000
Si      -1.39597807       1.31362560      -1.55146414       0.00000000
Si       2.01921066       0.91585638       1.23272394       0.00000000
Si      -2.71714447       2.64176559      -0.09243190       0.00000000
Si       3.52769724      -1.00406673       1.16134156       0.00000000
Si       2.68752420      -2.76421752      -0.13752820       0.00000000
Si       2.74493016       2.80531719      -0.15943900       0.00000000
Si      -2.81123765      -2.74773204      -0.07717013       0.00000000
Si       2.64940560      -0.04334769      -2.92798634       0.00000000
