10
Lattice="16.28999089631971 0.0 0.0 0.0 16.28999089631971 0.0 0.0 0.0 34.450931932916035" Properties=species:S:1:pos:R:3:initial_magmoms:R:1 pbc="T T T"
Si      -1.61951270      -1.48595751      -0.78248445       0.00000000
Si      -0.48859086       1.68471180      -1.55077512       0.00000000
Si       1.73732850      -1.52824635      -0.55627951       0.00000000
Si      -0.31662873       0.71030916       2.27524417       0.00000000
Si       1.11229749      -3.29048226       0.93375858       0.00000000
Si      -2.65881212       2.34191556      -0.92900435       0.00000000
Si      -1.09962713      -3.51130950       0.23006345       0.00000000
Si       0.93157623      -2.36146356      -2.82353106       0.00000000
Si       0.92752002       2.76260481       2.55712185       0.00000000
Si       0.76861107       3.58969698      -1.31929918       0.00000000
