10
Lattice="16.28999089631971 0.0 0.0 0.0 16.28999089631971 0.0 0.0 0.0 34.450931932916035" Properties=species:S:1:pos:R:3:initial_magmoms:R:1 pbc="T T T"
Si      -2.25575516       0.30480219       0.33079803       0.00000000
Si       0.16292932      -0.63263844      -2.22863203       0.00000000
Si       0.51988558      -2.02535199       1.01254791       0.00000000
Si       1.61951270       1.48595751       0.78248445       0.00000000
Si      -1.11840365      -1.69999182       2.62519693       0.00000000
Si       3.35684120      -0.04228884       0.22620495       0.00000000
Si      -2.72945207      -1.95944265       0.26864852       0.00000000
Si       2.55108893      -0.87550605      -2.04104660       0.00000000
Si      -2.10973160       0.49902786       2.62058050       0.00000000
Si      -2.50461749       2.18663928      -0.92318214       0.00000000
