10
Lattice="16.28999089631971 0.0 0.0 0.0 16.28999089631971 0.0 0.0 0.0 34.450931932916035" Properties=species:S:1:pos:R:3:initial_magmoms:R:1 pbc="T T T"
Si      -1.34066390      -1.34431596      -1.36414398       0.00000000
Si       1.35677944      -1.35576783       1.35419799       0.00000000
Si      -1.35535705       1.35794929       1.35540377       0.00000000
Si       1.35106165       1.35526964      -1.36509827       0.00000000
Si       0.17313989      -2.50183449      -2.80398014       0.00000000
Si       0.00061088      -2.71438641       2.71135876       0.00000000
Si      -2.71400101       0.00071676       2.71190998       0.00000000
Si       2.71515367       0.00068418       2.71146211       0.00000000
Si       0.00016127       2.71537263       2.71187552       0.00000000
Si      -2.71336570       2.71441640      -0.00506429       0.00000000
