10
Lattice="16.28999089631971 0.0 0.0 0.0 16.28999089631971 0.0 0.0 0.0 34.450931932916035" Properties=species:S:1:pos:R:3:initial_magmoms:R:1 pbc="T T T"
Si      -1.31526926       1.36308760      -1.38589286       0.00000000
Si       1.40041872      -1.35985662      -1.38351575       0.00000000
Si       0.96063759       1.82676779       1.21463719       0.00000000
Si      -1.71239665      -0.93364506       1.48280339       0.00000000
Si       2.38751127       0.61694695       2.67701116       0.00000000
Si      -3.52299662       0.67498659       1.16051474       0.00000000
Si      -2.65390883       2.68213940       0.17511418       0.00000000
Si      -2.60203933      -2.74343148       0.08784993       0.00000000
Si      -2.66419241       0.00342090      -2.75221759       0.00000000
Si       2.86003530      -2.57987988       0.02084283       0.00000000
