10
Lattice="16.28999089631971 0.0 0.0 0.0 16.28999089631971 0.0 0.0 0.0 34.450931932916035" Properties=species:S:1:pos:R:3:initial_magmoms:R:1 pbc="T T T"
Si      -1.81059996       1.60863165      -0.32228865       0.00000000
Si       1.71239665       0.93364506      -1.48280339       0.00000000
Si      -0.88964267      -1.80978642      -1.39495346       0.00000000
Si       0.29819334      -0.27704403       2.65971678       0.00000000
Si       0.39712739       2.29673266      -2.86869625       0.00000000
Si      -2.31425418      -0.44092143      -2.85663842       0.00000000
Si      -3.34440120       0.97400469       1.44222017       0.00000000
Si      -1.99948251      -0.24625593       3.23428975       0.00000000
Si       2.67303424       2.76041285      -0.26816620       0.00000000
Si      -0.94151217       3.61578446      -1.30768921       0.00000000
