10
Lattice="16.28999089631971 0.0 0.0 0.0 16.28999089631971 0.0 0.0 0.0 34.450931932916035" Properties=species:S:1:pos:R:3:initial_magmoms:R:1 pbc="T T T"
Si       0.31359879      -1.77513759       1.53179264       0.00000000
Si      -2.32734320       0.31271913       0.41909582       0.00000000
Si       0.31662873      -0.71030916      -2.27524417       0.00000000
Si       1.24414875       2.05229565       0.28187768       0.00000000
Si      -2.73879602       2.22369903      -0.96986318       0.00000000
Si      -3.41261558      -1.69723881      -0.43714812       0.00000000
Si      -0.17196213       0.97440264      -3.82601929       0.00000000
Si      -1.30288397      -2.19626667      -3.05772862       0.00000000
Si       3.58145424       1.82506644      -0.00337619       0.00000000
Si       0.82978002       3.70726910      -1.40828598       0.00000000
