10
Lattice="16.28999089631971 0.0 0.0 0.0 16.28999089631971 0.0 0.0 0.0 34.450931932916035" Properties=species:S:1:pos:R:3:initial_magmoms:R:1 pbc="T T T"
Si      -0.80523099      -1.99221813       0.89255524       0.00000000
Si       2.25422649      -0.45460503      -0.49226964       0.00000000
Si      -0.21843261       1.19571858       2.02147846       0.00000000
Si      -0.82113003       1.03029363      -2.03556890       0.00000000
Si      -0.84126447       3.13281854       0.81169886       0.00000000
Si       2.96251569       1.73779995      -0.09287976       0.00000000
Si       0.78714909      -2.24590230       2.58867892       0.00000000
Si      -2.88926770      -1.20581838       1.70421965       0.00000000
Si       1.23116562       3.33940832      -0.42932775       0.00000000
Si       2.86475940      -1.82368179       1.33063354       0.00000000
