10
Lattice="10.86 0.0 0.0 0.0 10.86 0.0 0.0 0.0 10.86" Properties=species:S:1:pos:R:3:initial_magmoms:R:1 pbc="T T T"
Si      -1.30983546      -1.22536638       1.09735956       0.00000000
Si       1.50924678       1.32123846       1.19628330       0.00000000
Si       1.40516454      -1.22536638      -1.61764044       0.00000000
Si      -1.30983546       1.48963362      -1.61764044       0.00000000
Si      -2.66733546       0.13213362       2.45485956       0.00000000
Si      -2.66733546      -2.58286638      -0.26014044       0.00000000
Si       2.85279168       2.65727910      -0.21477822       0.00000000
Si      -2.66733546       2.84713362      -0.26014044       0.00000000
Si      -0.03665250       3.01535502       2.49292386       0.00000000
Si       0.04766454      -2.58286638      -2.97514044       0.00000000
