10
Lattice="10.86 0.0 0.0 0.0 10.86 0.0 0.0 0.0 10.86" Properties=species:S:1:pos:R:3:initial_magmoms:R:1 pbc="T T T"
Si      -1.50924678      -1.32123846      -1.19628330       0.00000000
Si       1.34354490       1.33604064      -1.41106152       0.00000000
Si      -1.54589928       1.69411656       1.29664056       0.00000000
Si       2.51984580      -2.19950838       0.01516056       0.00000000
Si      -0.10408224      -2.54660484      -2.81392374       0.00000000
Si      -2.81908224      -2.54660484      -0.09892374       0.00000000
Si       2.61091776       0.16839516      -2.81392374       0.00000000
Si      -2.81908224       0.16839516       2.61607626       0.00000000
Si       2.61091776       2.88339516      -0.09892374       0.00000000
Si      -0.10408224       2.88339516       2.61607626       0.00000000
