10
Lattice="10.86 0.0 0.0 0.0 10.86 0.0 0.0 0.0 10.86" Properties=species:S:1:pos:R:3:initial_magmoms:R:1 pbc="T T T"
Si      -1.42213872       1.51756554      -1.18160058       0.00000000
Si      -1.42213872      -1.19743446       1.53339942       0.00000000
Si       1.29286128       1.51756554       1.53339942       0.00000000
Si       0.97305600      -2.75959116      -1.70088234       0.00000000
Si       2.46423174      -2.46544806       0.11068512       0.00000000
Si      -2.77963872       0.16006554      -2.53910058       0.00000000
Si      -2.77963872      -2.55493446       0.17589942       0.00000000
Si      -0.06463872      -2.55493446       2.89089942       0.00000000
Si       2.45988774       3.00066144       0.29112402       0.00000000
Si       2.65036128       0.16006554       2.89089942       0.00000000
