10
Lattice="10.86 0.0 0.0 0.0 10.86 0.0 0.0 0.0 10.86" Properties=species:S:1:pos:R:3:initial_magmoms:R:1 pbc="T T T"
Si      -1.27318296       1.18927860      -1.39556430       0.00000000
Si       1.44181704       1.18927860       1.31943570       0.00000000
Si      -1.27318296      -1.52572140       1.31943570       0.00000000
Si       1.54589928      -1.69411656      -1.29664056       0.00000000
Si      -2.63068296       2.54677860      -0.03806430       0.00000000
Si       0.08431704       2.54677860       2.67693570       0.00000000
Si       0.08431704       2.54677860      -2.75306430       0.00000000
Si      -2.63068296      -0.16822140       2.67693570       0.00000000
Si       2.79931704       2.54677860      -0.03806430       0.00000000
Si      -2.63068296      -0.16822140      -2.75306430       0.00000000
