10
Lattice="16.290000149 0.0 0.0 0.0 16.290000149 0.0 0.0 0.0 29.1751946751" Properties=species:S:1:pos:R:3:initial_magmoms:R:1 pbc="T T T"
Si      -1.34833960      -1.38455227       1.30293502       0.00000000
Si       1.29914380      -1.34926813      -1.43722844       0.00000000
Si      -1.40146129       1.33264256      -1.36831663       0.00000000
Si       1.22440528       1.44405476       1.42739640       0.00000000
Si       0.19337859      -2.71389773       2.48514308       0.00000000
Si       2.64080450       2.70684416       0.03168426       0.00000000
Si      -2.70715367      -0.01133784       2.64872840       0.00000000
Si      -0.30687102       2.78031207       2.59104904       0.00000000
Si       2.65460213      -0.00065160      -2.77762441       0.00000000
Si      -0.06947685       2.69535971      -2.74217655       0.00000000
