10
Lattice="16.290000149 0.0 0.0 0.0 16.290000149 0.0 0.0 0.0 29.1751946751" Properties=species:S:1:pos:R:3:initial_magmoms:R:1 pbc="T T T"
Si       1.14849388       0.12722490      -2.05874761       0.00000000
Si      -0.91554688      -1.83627398       1.16928345       0.00000000
Si       1.56278116       0.77867830       1.59281975       0.00000000
Si      -1.93344383       1.49110516      -0.31911828       0.00000000
Si      -1.94722517      -0.34986033       2.64070522       0.00000000
H       -2.82892143       0.50225328       1.75118271       0.00000000
H        1.85220560      -2.84780154      -0.14281258       0.00000000
Si      -0.04896774       0.94975588       3.27284416       0.00000000
Si       2.39622644       2.70853181       0.57358433       0.00000000
Si       2.67242339       1.97708474      -1.63486121       0.00000000
