10
Lattice="16.290000149 0.0 0.0 0.0 16.290000149 0.0 0.0 0.0 29.1751946751" Properties=species:S:1:pos:R:3:initial_magmoms:R:1 pbc="T T T"
Si      -1.38198334       1.44933272      -1.15717575       0.00000000
Si       1.52788798      -1.26146503      -1.21567201       0.00000000
Si       0.85050091       1.66395673       1.39194854       0.00000000
Si      -0.92093887      -1.73299538       1.27731920       0.00000000
H        0.22960755       2.96608323       0.94871898       0.00000000
Si       2.55533087      -2.09310212       0.73751975       0.00000000
Si       0.11512143      -2.65702934      -2.51536858       0.00000000
Si      -2.61375471       0.08989001      -2.60432375       0.00000000
Si       0.08878050       1.07700033       3.54563223       0.00000000
Si       0.72840736      -3.39003048       1.37315971       0.00000000
