10
Lattice="16.290000149 0.0 0.0 0.0 16.290000149 0.0 0.0 0.0 29.1751946751" Properties=species:S:1:pos:R:3:initial_magmoms:R:1 pbc="T T T"
Si       1.03353535       1.10752453      -0.21338737       0.00000000
H       -0.52145919       1.54051273       1.81606834       0.00000000
Si      -2.21262185      -0.77693527      -1.12216551       0.00000000
Si      -0.97309945       0.25616025       2.47866619       0.00000000
Si       1.03560418      -1.11299797       2.39814265       0.00000000
Si      -0.54447696      -2.45985518      -1.37846960       0.00000000
Si      -0.18938754      -2.70339068       0.98460447       0.00000000
Si       2.19574378       0.94532500       1.80655723       0.00000000
Si       2.51979424       0.03113019      -1.64110470       0.00000000
Si      -0.22476942       2.75165796      -1.36779148       0.00000000
