10
Lattice="16.290000149 0.0 0.0 0.0 16.290000149 0.0 0.0 0.0 29.1751946751" Properties=species:S:1:pos:R:3:initial_magmoms:R:1 pbc="T T T"
Si       1.35255871      -1.36809937       1.33628227       0.00000000
Si      -1.35467641      -1.36831114      -1.33701165       0.00000000
Si       1.37373571       1.33587775      -1.36361942       0.00000000
Si      -1.37161801       1.34666173       1.36280252       0.00000000
Si       2.63805149       0.09091449       2.63507441       0.00000000
Si       0.03124422      -2.72364567      -2.66894681       0.00000000
Si      -2.68289786      -0.00801468      -2.71101744       0.00000000
Si      -2.70333693       2.70353729      -0.00399700       0.00000000
Si      -2.69927420      -2.72347300       0.03961991       0.00000000
Si       0.03132567       2.71963181      -2.70538663       0.00000000
