10
Lattice="16.290000149 0.0 0.0 0.0 16.290000149 0.0 0.0 0.0 29.1751946751" Properties=species:S:1:pos:R:3:initial_magmoms:R:1 pbc="T T T"
Si       0.65088325      -0.42503868       2.13167685       0.00000000
Si      -1.07256619      -1.76508668      -1.05258267       0.00000000
Si      -1.70440643       1.59604534      -0.01228276       0.00000000
Si       1.79028731       0.58738483      -1.43717009       0.00000000
Si      -0.31478796       3.03668409      -1.18611754       0.00000000
H        3.08599392       1.13552704      -0.51634260       0.00000000
H       -0.56176066      -3.04538295       1.33254784       0.00000000
Si      -2.01109826      -0.72024607      -2.87810378       0.00000000
Si       0.76343086       1.93240127      -3.04451909       0.00000000
Si      -1.25721334      -1.21569013       3.25298461       0.00000000
