10
Lattice="16.290000149 0.0 0.0 0.0 16.290000149 0.0 0.0 0.0 29.1751946751" Properties=species:S:1:pos:R:3:initial_magmoms:R:1 pbc="T T T"
Si      -1.31410780       0.26753067       1.91117948       0.00000000
Si       2.20929869      -0.07718202       0.81147886       0.00000000
Si      -1.29017290      -0.15434775      -2.02586717       0.00000000
Si      -0.54380907       2.38267316       0.73241409       0.00000000
Si      -0.52017228      -1.99472681       1.69566231       0.00000000
H        2.05540706       0.71881255       2.08704755       0.00000000
H       -2.43094532       0.80858674      -1.73551563       0.00000000
H        0.22297752      -1.62337996      -2.66080693       0.00000000
H        0.65062261       2.74955655       1.62499999       0.00000000
H        0.76010770      -1.95581000       2.51729415       0.00000000
