10
Lattice="16.290000149 0.0 0.0 0.0 16.290000149 0.0 0.0 0.0 29.1751946751" Properties=species:S:1:pos:R:3:initial_magmoms:R:1 pbc="T T T"
Si       1.34833960       1.38455227      -1.30293502       0.00000000
Si       1.54171819      -1.32934546       1.18220806       0.00000000
Si      -1.35881407       1.37321443       1.34579338       0.00000000
Si      -1.40699989      -1.32721147      -1.35690913       0.00000000
Si       2.64748340       0.03528414      -2.74016346       0.00000000
Si      -0.05312169       2.71719483      -2.67125165       0.00000000
Si       2.62905941      -2.74668951      -0.31488788       0.00000000
Si       2.57274488       2.82860703       0.12446138       0.00000000
Si      -2.70663239       0.08099388       2.71516032       0.00000000
Si      -2.78322798      -2.64738566       0.00714792       0.00000000
