10
Lattice="16.290000149 0.0 0.0 0.0 16.290000149 0.0 0.0 0.0 29.1751946751" Properties=species:S:1:pos:R:3:initial_magmoms:R:1 pbc="T T T"
Si       1.36428751       1.35736426       1.34591008       0.00000000
Si       1.37013562      -1.36389655      -1.33566959       0.00000000
Si      -1.34832331       1.36049194      -1.36519488       0.00000000
Si      -1.34996860      -1.34708527       1.37715671       0.00000000
Si      -0.00935046       2.72003906       2.68149214       0.00000000
Si       2.71599914      -0.01808190       2.68601430       0.00000000
Si       2.72163548       0.01203831      -2.68207565       0.00000000
Si      -2.69677694      -2.70985781       0.02710376       0.00000000
Si       0.02332728      -2.72085356      -2.69818035       0.00000000
Si      -2.70829397       0.00592956      -2.71863217       0.00000000
