10
Lattice="16.290000149 0.0 0.0 0.0 16.290000149 0.0 0.0 0.0 29.1751946751" Properties=species:S:1:pos:R:3:initial_magmoms:R:1 pbc="T T T"
H        1.29570661       0.54814222       0.92082749       0.00000000
Si       1.22471479      -1.85399750      -0.66822866       0.00000000
Si      -1.02685645       1.34501644      -1.60734900       0.00000000
Si      -1.79028731      -0.58738483       1.43717009       0.00000000
H        0.94949524       1.24473520      -2.68335936       0.00000000
Si      -1.79973551      -0.70255513      -2.57955401       0.00000000
Si      -2.10507527       2.44929926       0.25105255       0.00000000
Si       2.47515149       1.08810685       1.97081358       0.00000000
Si      -0.31244220      -2.57950523      -2.27578189       0.00000000
Si      -2.86285350      -2.35247150       0.38458742       0.00000000
