10
Lattice="16.290000149 0.0 0.0 0.0 16.290000149 0.0 0.0 0.0 29.1751946751" Properties=species:S:1:pos:R:3:initial_magmoms:R:1 pbc="T T T"
Si       1.37617921       1.33928236      -1.34343019       0.00000000
Si       1.36352188      -1.39422853       1.30173884       0.00000000
Si      -1.35301483      -1.35532801      -1.36102283       0.00000000
Si      -1.35079939       1.36840888       1.35524614       0.00000000
Si       0.00674406       2.68690520      -2.68461389       0.00000000
Si       2.78246235      -0.08511525       2.61789022       0.00000000
Si       0.01386279      -2.75177199       2.65255035       0.00000000
Si      -2.73908207       0.00522909       2.66637939       0.00000000
Si       0.01583388      -2.73595440      -2.68303843       0.00000000
Si      -2.72041373       2.70769124      -0.00113783       0.00000000
