10
Lattice="16.290000149 0.0 0.0 0.0 16.290000149 0.0 0.0 0.0 29.1751946751" Properties=species:S:1:pos:R:3:initial_magmoms:R:1 pbc="T T T"
Si       1.04612752      -1.11407637      -0.01922645       0.00000000
Si      -1.86952187       1.84166922      -0.71788484       0.00000000
Si      -0.33236487       2.56717696       0.88966839       0.00000000
H        1.21744945       2.16393430      -1.73096430       0.00000000
Si      -0.26033049       1.10552412       2.82097875       0.00000000
Si      -1.83321146      -0.58331721       2.38090011       0.00000000
Si       2.91533825      -0.21460283       1.10075092       0.00000000
Si      -1.26956116       0.78114135      -2.78500573       0.00000000
Si       1.32232447      -1.84552344      -2.22767199       0.00000000
Si       0.21268224      -3.04392988       1.00000897       0.00000000
