10
Lattice="16.290000149 0.0 0.0 0.0 16.290000149 0.0 0.0 0.0 29.1751946751" Properties=species:S:1:pos:R:3:initial_magmoms:R:1 pbc="T T T"
Si       1.71685199      -1.63113400      -0.10120875       0.00000000
Si      -2.05614011      -1.00843246      -0.72468266       0.00000000
Si       1.39398418       1.73885978      -0.91440895       0.00000000
Si      -1.00667314       1.24067899       1.84197592       0.00000000
H        0.79796566      -1.46693080      -2.64216398       0.00000000
H       -0.60681880       0.56381320      -3.10421154       0.00000000
Si      -2.36164766       2.64906353       0.52713742       0.00000000
Si       2.15808293      -1.87885604       2.18062670       0.00000000
Si      -3.46956966       0.94136653      -0.72144421       0.00000000
Si       3.58419099      -0.73116037      -1.37318889       0.00000000
