10
Lattice="16.290000149 0.0 0.0 0.0 16.290000149 0.0 0.0 0.0 29.1751946751" Properties=species:S:1:pos:R:3:initial_magmoms:R:1 pbc="T T T"
Si      -2.22969377       0.51095214      -0.32827929       0.00000000
Si       0.89290378      -1.41946174       1.59171110       0.00000000
Si       0.56395981      -1.02894157      -2.01224235       0.00000000
Si       1.24038577       1.79303054      -0.82959666       0.00000000
H       -0.01576872      -1.49229433       2.80814166       0.00000000
Si       0.60766588       1.12634925      -2.98208417       0.00000000
Si       2.77938354      -0.07646526       1.97694037       0.00000000
Si       3.29649330       1.17471426       0.04020342       0.00000000
Si      -1.05622732      -2.71611317      -2.08173767       0.00000000
Si       1.16582644       1.45013256       3.06275359       0.00000000
