10
Lattice="16.290000149 0.0 0.0 0.0 16.290000149 0.0 0.0 0.0 29.1751946751" Properties=species:S:1:pos:R:3:initial_magmoms:R:1 pbc="T T T"
Si       1.41687163      -1.34326054       1.25418910       0.00000000
Si      -1.49840308       1.23573009       1.27923309       0.00000000
Si      -1.03886218      -1.85482503      -0.95103841       0.00000000
Si       0.86563432       1.72811163      -1.38226675       0.00000000
H       -2.05205132       0.77661273      -2.05451721       0.00000000
Si      -1.87323599      -0.61128388      -2.66419125       0.00000000
Si      -0.07871328       2.66470519       2.51501848       0.00000000
Si       2.64857483      -2.54436445      -0.34211125       0.00000000
Si      -0.83940742       3.39695699      -1.25538820       0.00000000
Si      -0.04382010      -2.78001559       2.46877580       0.00000000
