10
Lattice="16.290000149 0.0 0.0 0.0 16.290000149 0.0 0.0 0.0 29.1751946751" Properties=species:S:1:pos:R:3:initial_magmoms:R:1 pbc="T T T"
H        1.28027998       0.03891681       0.82163183       0.00000000
Si      -1.36168274      -1.38457019       1.33499856       0.00000000
Si       0.60232276      -1.51773606      -1.75955599       0.00000000
Si      -0.79393551       2.26225748       0.21551716       0.00000000
Si       0.52017228       1.99472681      -1.69566231       0.00000000
Si       2.72947097       1.91754479      -0.88418345       0.00000000
Si       0.47889342      -2.55977804       2.26729190       0.00000000
H       -3.05957154       0.99396694      -1.49671666       0.00000000
Si       3.58756302      -0.16154793      -0.09181434       0.00000000
Si       2.67002876      -2.24209372      -0.91195824       0.00000000
