10
Lattice="16.290000149 0.0 0.0 0.0 16.290000149 0.0 0.0 0.0 29.1751946751" Properties=species:S:1:pos:R:3:initial_magmoms:R:1 pbc="T T T"
Si      -1.27895072       1.37332846      -1.38714630       0.00000000
Si       1.30101715       1.32700296       1.42598140       0.00000000
Si      -1.41191296      -1.39040038       1.25673610       0.00000000
Si       1.32958981      -1.31442382      -1.41975833       0.00000000
Si       2.64710873       2.65707821       0.07937695       0.00000000
Si      -0.04606812      -2.73820242       2.62890385       0.00000000
Si       2.65860947      -2.70989039      -0.05054602       0.00000000
Si      -0.09656712      -2.67397094      -2.69967908       0.00000000
Si      -2.71105306       2.68024259      -0.03482351       0.00000000
Si      -2.69326547      -0.04523733       2.71339522       0.00000000
