10
Lattice="16.290000149 0.0 0.0 0.0 16.290000149 0.0 0.0 0.0 29.1751946751" Properties=species:S:1:pos:R:3:initial_magmoms:R:1 pbc="T T T"
Si      -0.53543601      -0.25624170       1.38596762       0.00000000
H       -0.67349377      -0.91932616      -1.62044866       0.00000000
H       -1.59914044       0.84475054      -1.16834985       0.00000000
H        1.27242820       1.75730006       0.42893371       0.00000000
Si       0.45747207      -0.98282458      -2.62576752       0.00000000
Si       2.18110070       1.83013265      -0.78749685       0.00000000
Si       2.51924852      -0.28968507      -1.72119061       0.00000000
Si       1.15329943      -1.18368028       2.69940571       0.00000000
Si      -2.33344478      -1.85166803       1.26719541       0.00000000
Si      -1.38533419       1.61842780       2.50145202       0.00000000
