10
Lattice="16.290000149 0.0 0.0 0.0 16.290000149 0.0 0.0 0.0 29.1751946751" Properties=species:S:1:pos:R:3:initial_magmoms:R:1 pbc="T T T"
H       -0.06845058      -1.07913106      -1.05617122       0.00000000
Si       2.19718545       0.18915948       0.65606260       0.00000000
Si      -1.61826490      -0.67588840       1.56446146       0.00000000
Si      -0.45172170       2.13262166      -0.89229415       0.00000000
H       -1.89348446       2.42284430      -0.45066923       0.00000000
H        1.08034792       0.73021555      -2.99063251       0.00000000
Si      -3.15542190      -1.40139613      -0.04309176       0.00000000
H       -1.28590003      -3.24306536       0.67479308       0.00000000
Si       2.99112096      -2.07309800       0.44054544       0.00000000
Si       3.51129324      -0.07837119      -1.25511687       0.00000000
