10
Lattice="16.290000149 0.0 0.0 0.0 16.290000149 0.0 0.0 0.0 29.1751946751" Properties=species:S:1:pos:R:3:initial_magmoms:R:1 pbc="T T T"
Si       1.33750349       1.34930071      -1.37041724       0.00000000
Si      -1.37938321       1.39636431       1.29759596       0.00000000
Si       1.34949293      -1.35055504       1.38655113       0.00000000
Si      -1.37924911      -1.36003582      -1.35734676       0.00000000
Si      -0.11047064      -2.73901691       2.60152293       0.00000000
Si      -2.68417174       0.05183478       2.66279084       0.00000000
Si       2.68566391      -2.68337027      -0.02176470       0.00000000
Si       2.68046740       2.69567248       0.01916810       0.00000000
Si      -0.06730214       2.68685959      -2.70541580       0.00000000
Si       2.68827031      -0.01203831      -2.73184853       0.00000000
