10
Lattice="16.290000149 0.0 0.0 0.0 16.290000149 0.0 0.0 0.0 29.1751946751" Properties=species:S:1:pos:R:3:initial_magmoms:R:1 pbc="T T T"
H        1.31388625      -0.45387198       0.60751508       0.00000000
Si      -1.26096004       0.24500160       1.93656190       0.00000000
Si       0.26567361       2.02746971      -1.20067596       0.00000000
Si      -0.97181254      -1.99547615      -0.87823171       0.00000000
H        1.88366159      -0.58438747      -1.72603369       0.00000000
Si       3.07134921      -1.09164178      -0.92812129       0.00000000
H       -0.89911027      -2.82375750       1.69481623       0.00000000
Si      -1.92805184       2.75533950      -0.73369780       0.00000000
Si      -3.32273649      -0.44813790       1.03198499       0.00000000
H        1.07693191       0.16685847      -3.38496444       0.00000000
