10
Lattice="16.290000149 0.0 0.0 0.0 16.290000149 0.0 0.0 0.0 29.1751946751" Properties=species:S:1:pos:R:3:initial_magmoms:R:1 pbc="T T T"
Si      -2.19718545      -0.18915948      -0.65606260       0.00000000
Si       1.31410780      -0.26753067      -1.91117948       0.00000000
Si       0.51540909       0.90978022       2.09334939       0.00000000
Si       0.79393551      -2.26225748      -0.21551716       0.00000000
Si       0.77029872       2.11514249      -1.17876539       0.00000000
H        2.07421549      -2.22334067       0.60611467       0.00000000
H       -2.26563603      -1.26829054      -1.71223382       0.00000000
H        1.96473040       2.48202587      -0.28617948       0.00000000
H        3.36951485       0.45128187       0.17586807       0.00000000
Si      -2.64890715       1.94346218      -1.54835676       0.00000000
