10
Lattice="16.290000149 0.0 0.0 0.0 16.290000149 0.0 0.0 0.0 29.1751946751" Properties=species:S:1:pos:R:3:initial_magmoms:R:1 pbc="T T T"
Si       1.35973446       1.35042472      -1.35393326       0.00000000
Si       1.37102343      -1.34157925       1.35717171       0.00000000
Si      -1.33773079       1.36352188       1.37310136       0.00000000
Si      -1.34805453      -1.37805256      -1.35224110       0.00000000
Si      -2.68772785      -0.04644279       2.67772854       0.00000000
Si       2.66962966      -2.69995349      -0.06007173       0.00000000
Si      -0.02919983       2.69939963      -2.68440966       0.00000000
Si      -2.69129536      -0.02072088      -2.72143298       0.00000000
Si       2.67819820      -0.01264104      -2.74424799       0.00000000
Si       2.72718223       0.04018743       2.70868342       0.00000000
