10
Lattice="16.290000149 0.0 0.0 0.0 16.290000149 0.0 0.0 0.0 29.1751946751" Properties=species:S:1:pos:R:3:initial_magmoms:R:1 pbc="T T T"
Si      -0.09695808       1.44474382      -0.53997450       0.00000000
H        1.18874647       1.54416169       0.47363011       0.00000000
Si       0.84549988      -1.98804791      -1.02696685       0.00000000
Si      -1.66742813       0.22481829      -1.84387230       0.00000000
Si      -0.89924059      -2.30150661       0.46732827       0.00000000
Si       2.70746318      -0.83479735      -0.04195393       0.00000000
Si      -2.80911279      -1.23378669      -0.33026320       0.00000000
Si      -0.26652069      -1.63482532       2.61981578       0.00000000
Si      -1.58029291       2.69529455       0.70288879       0.00000000
Si      -0.13615182      -1.11143902      -3.00752494       0.00000000
