10
Lattice="16.290000149 0.0 0.0 0.0 16.290000149 0.0 0.0 0.0 29.1751946751" Properties=species:S:1:pos:R:3:initial_magmoms:R:1 pbc="T T T"
Si      -1.48625889       1.07639434       1.42771733       0.00000000
Si      -1.42116405      -1.43863507      -1.16651181       0.00000000
Si       1.56381558      -1.07629660       1.36396953       0.00000000
Si       1.31946558       1.48282984      -1.26982117       0.00000000
H       -2.51979424      -0.03113019       1.64110470       0.00000000
Si       1.98606867       0.73645462       2.85035817       0.00000000
Si      -0.32405046       0.91419481       3.44766193       0.00000000
Si       0.01698884      -2.68366349      -2.53406988       0.00000000
Si      -2.71068046      -0.02124216      -2.52522980       0.00000000
Si       2.82772411       0.14291217      -2.51545611       0.00000000
