10
Lattice="16.290000149 0.0 0.0 0.0 16.290000149 0.0 0.0 0.0 29.1751946751" Properties=species:S:1:pos:R:3:initial_magmoms:R:1 pbc="T T T"
Si       0.62815870      -0.39884436       2.14895731       0.00000000
Si       1.83060506       0.82813474      -1.16458625       0.00000000
Si      -0.88078402      -1.89214868      -1.06518636       0.00000000
Si      -1.60313149       1.77689693       0.09070568       0.00000000
H        2.67690314       1.76349026      -0.35777541       0.00000000
Si      -2.27532206      -0.60598801      -2.42390435       0.00000000
Si       0.53502876       2.12203316      -2.59055306       0.00000000
Si      -1.49366269      -0.98898220       3.14902464       0.00000000
Si      -3.45892089       0.84704743      -1.01515090       0.00000000
Si      -0.55231246       3.53937720      -1.09345712       0.00000000
