10
Lattice="16.290000149 0.0 0.0 0.0 16.290000149 0.0 0.0 0.0 29.1751946751" Properties=species:S:1:pos:R:3:initial_magmoms:R:1 pbc="T T T"
Si       1.41833773      -1.37428957       1.25336636       0.00000000
Si       1.37622808       1.32017419      -1.36405705       0.00000000
Si      -1.33617097       1.33281523       1.40831582       0.00000000
Si      -1.35615880      -1.38176668      -1.35151172       0.00000000
Si      -2.68566391       2.68337027       0.02176470       0.00000000
Si       0.00260640       2.67133196      -2.71008383       0.00000000
Si       0.12922857      -2.62226648       2.75486776       0.00000000
Si      -2.79613454      -0.05564664       2.62328763       0.00000000
Si       2.78322798       2.64738566      -0.00714792       0.00000000
Si      -2.72718223      -0.04018743      -2.70868342       0.00000000
