10
Lattice="16.290000149 0.0 0.0 0.0 16.290000149 0.0 0.0 0.0 29.1751946751" Properties=species:S:1:pos:R:3:initial_magmoms:R:1 pbc="T T T"
Si      -1.35540946      -1.34395759       1.37549373       0.00000000
Si       1.33450939       1.35176050       1.39419503       0.00000000
Si      -1.37650501       1.34703640      -1.35950572       0.00000000
Si       1.36273996      -1.37388232      -1.34938193       0.00000000
Si       2.71454933      -2.69241122       0.05861297       0.00000000
Si       2.69847110       2.71282259       0.06456471       0.00000000
Si      -2.71538012      -2.69851997       0.02205645       0.00000000
Si      -0.02334357       2.74462068      -2.67994586       0.00000000
Si       2.72978048      -0.02358792      -2.69971497       0.00000000
Si      -2.72802116       2.71630865      -0.00049598       0.00000000
