10
Lattice="16.290000149 0.0 0.0 0.0 16.290000149 0.0 0.0 0.0 29.1751946751" Properties=species:S:1:pos:R:3:initial_magmoms:R:1 pbc="T T T"
Si      -1.36161595      -1.36230013       1.34197143       0.00000000
Si       1.35301483       1.35532801       1.36102283       0.00000000
Si      -1.38430792       1.33654564      -1.35043224       0.00000000
Si       1.36884871      -1.38062638      -1.32201560       0.00000000
Si      -0.02034621       2.69760773      -2.68006256       0.00000000
Si       2.71653671      -0.03890052       2.66276167       0.00000000
Si      -0.00426798      -2.70762608      -2.68601430       0.00000000
Si      -2.73525393       0.00037467       2.67755349       0.00000000
Si      -0.00990432      -2.73774630       2.68207565       0.00000000
Si       2.72919404       2.69461037       0.01759264       0.00000000
