10
Lattice="16.290000149 0.0 0.0 0.0 16.290000149 0.0 0.0 0.0 29.1751946751" Properties=species:S:1:pos:R:3:initial_magmoms:R:1 pbc="T T T"
Si      -1.43397613       1.31463559       1.29006876       0.00000000
Si      -1.37678194      -1.34130232      -1.33149753       0.00000000
Si       1.34965909       1.35754345      -1.35081151       0.00000000
Si       1.36199062      -1.33134913       1.37216776       0.00000000
Si      -0.00809613       2.70705593       2.46626673       0.00000000
Si       0.00154755      -2.71044425      -2.64018007       0.00000000
Si       0.00252495      -2.65831625       2.73003967       0.00000000
Si       2.72818407       0.00684180      -2.66964701       0.00000000
Si      -2.72849357       0.03414384      -2.67160175       0.00000000
Si      -0.01386279       2.75177199      -2.65255035       0.00000000
