10
Lattice="16.290000149 0.0 0.0 0.0 16.290000149 0.0 0.0 0.0 29.1751946751" Properties=species:S:1:pos:R:3:initial_magmoms:R:1 pbc="T T T"
Si      -1.66699318      -0.78252274       1.45085326       0.00000000
Si       1.10792201       1.70769701       1.24858163       0.00000000
Si      -0.52589496       0.67427569      -2.23140641       0.00000000
Si       1.41342956      -1.94979899      -0.00323845       0.00000000
H       -2.84643806      -1.32248737       0.40086717       0.00000000
Si       2.46289653       0.29931246       2.56342013       0.00000000
Si       0.89802047      -2.85957921      -2.09658784       0.00000000
Si       3.46956966      -0.94136653       0.72144421       0.00000000
Si      -0.52912038      -2.28656216       2.83227830       0.00000000
H        2.86275087      -0.37755333      -2.38276732       0.00000000
