10
Lattice="16.290000149 0.0 0.0 0.0 16.290000149 0.0 0.0 0.0 29.1751946751" Properties=species:S:1:pos:R:3:initial_magmoms:R:1 pbc="T T T"
Si      -1.03167829       1.48641364       1.47142177       0.00000000
Si       0.91554688       1.83627398      -1.16928345       0.00000000
Si      -1.34050411      -1.45595134      -1.29176092       0.00000000
Si       1.50327379      -1.31067712       1.29426999       0.00000000
H       -1.91337455       2.33852726       0.58189926       0.00000000
H        2.76775248      -1.01152756      -1.31209603       0.00000000
Si       2.31611222      -2.29588004      -0.64949818       0.00000000
Si       0.43798923      -3.00416925      -1.92343306       0.00000000
Si       0.86657914       2.78602986       2.10356071       0.00000000
Si       2.47832804       2.61495227       0.42353630       0.00000000
