10
Lattice="16.290000149 0.0 0.0 0.0 16.290000149 0.0 0.0 0.0 29.1751946751" Properties=species:S:1:pos:R:3:initial_magmoms:R:1 pbc="T T T"
Si       1.30015378      -1.34930071       1.41890642       0.00000000
Si      -1.37782450       1.34897491       1.35051976       0.00000000
Si      -1.42890994      -1.40413285      -1.24201138       0.00000000
Si       1.42742755       1.39088908      -1.28105946       0.00000000
Si      -2.63187758      -0.00702099      -2.68315805       0.00000000
Si       2.71480997      -0.05787837      -2.60950818       0.00000000
Si       0.05199768       2.65540034      -2.69773397       0.00000000
Si      -0.11385081      -2.72754061      -2.64265121       0.00000000
Si       2.63029745      -2.76857023       0.13236786       0.00000000
Si      -0.03101616       2.70593192       2.71303053       0.00000000
