10
Lattice="16.290000149 0.0 0.0 0.0 16.290000149 0.0 0.0 0.0 29.1751946751" Properties=species:S:1:pos:R:3:initial_magmoms:R:1 pbc="T T T"
Si       0.84318670      -1.84440269       1.12735870       0.00000000
Si      -1.72102223       0.75870676       1.37893640       0.00000000
Si      -1.07600338      -0.08703747      -2.09997216       0.00000000
Si       1.79800877       1.59542632       0.11877222       0.00000000
H        2.33344478       1.85166803      -1.26719541       0.00000000
H       -1.15761628      -3.01944927      -1.06244389       0.00000000
Si       2.55911015      -2.28636668      -0.39751203       0.00000000
Si      -0.36238734       2.10364175       2.72108288       0.00000000
H        1.65995102       0.93234187      -2.88764407       0.00000000
Si      -0.62289703       2.12136527      -2.71072569       0.00000000
