10
Lattice="16.290000149 0.0 0.0 0.0 16.290000149 0.0 0.0 0.0 29.1751946751" Properties=species:S:1:pos:R:3:initial_magmoms:R:1 pbc="T T T"
H        0.09695808      -1.44474382       0.53997450       0.00000000
H        1.28570455       0.09941787       1.01360461       0.00000000
Si      -1.48333483       1.25055073       1.24286329       0.00000000
Si       1.37326330       1.44409222      -1.28047012       0.00000000
Si      -1.57047004      -1.21992553      -1.30389780       0.00000000
Si       2.63427221      -0.47043891       2.27336034       0.00000000
Si      -0.03919374      -2.55618284      -2.46755044       0.00000000
Si       0.94245796      -3.43279173      -0.48699235       0.00000000
Si      -0.05722677       2.34256718       2.73386162       0.00000000
Si       2.80442127      -2.27954117       0.49802057       0.00000000
