10
Lattice="16.290000149 0.0 0.0 0.0 16.290000149 0.0 0.0 0.0 29.1751946751" Properties=species:S:1:pos:R:3:initial_magmoms:R:1 pbc="T T T"
Si       1.30010491       1.48398643      -1.27388148       0.00000000
Si       1.37354023      -1.35130438       1.36156841       0.00000000
Si      -1.38424276       1.37112931       1.35137168       0.00000000
Si      -1.17403660      -1.46727289      -1.44994591       0.00000000
Si       2.60703533       0.05828562      -2.57517482       0.00000000
Si      -2.52901112      -0.05888835      -2.76478441       0.00000000
Si      -2.66053984      -2.66740607      -0.01407120       0.00000000
Si       0.01817964      -2.66602142       2.76088076       0.00000000
Si       2.71728605       0.01798416       2.72496610       0.00000000
Si      -0.02195892       2.73890289       2.71484231       0.00000000
