10
Lattice="16.290000149 0.0 0.0 0.0 16.290000149 0.0 0.0 0.0 29.1751946751" Properties=species:S:1:pos:R:3:initial_magmoms:R:1 pbc="T T T"
Si       0.06845058       1.07913106       1.05617122       0.00000000
H        1.14879850       1.80934661      -1.93446128       0.00000000
H       -1.21744945      -2.16393430       1.73096430       0.00000000
Si      -2.48701061      -1.38279295      -1.05404143       0.00000000
Si      -0.47661282      -2.26666718      -2.01273833       0.00000000
Si      -1.54981432       0.40324266       2.62063269       0.00000000
Si       2.26563603       1.26829054       1.71223382       0.00000000
Si      -0.38327112       3.21175272       0.16387707       0.00000000
Si      -3.08697132      -0.32226507       1.01307946       0.00000000
Si       2.28957092       0.84641212      -2.22481282       0.00000000
