10
Lattice="16.290000149 0.0 0.0 0.0 16.290000149 0.0 0.0 0.0 29.1751946751" Properties=species:S:1:pos:R:3:initial_magmoms:R:1 pbc="T T T"
Si      -1.36498798      -1.35109261       1.34754389       0.00000000
Si      -1.39004200       1.34763262      -1.33459011       0.00000000
Si       1.31851261      -1.36932112      -1.38436299       0.00000000
Si       1.36251190       1.34215592       1.37922815       0.00000000
Si      -0.06872751       2.70317891       2.67063897       0.00000000
Si       0.00863370      -2.70225038       2.69357067       0.00000000
Si       2.68812695      -2.70860348      -0.02797901       0.00000000
Si       2.69449634       2.70487307       0.00536824       0.00000000
Si      -0.04696407       2.70251102      -2.70165220       0.00000000
Si       2.69496875      -0.01454697      -2.71819454       0.00000000
