10
Lattice="16.290000149 0.0 0.0 0.0 16.290000149 0.0 0.0 0.0 29.1751946751" Properties=species:S:1:pos:R:3:initial_magmoms:R:1 pbc="T T T"
Si      -1.23170320       1.20110390       1.59630035       0.00000000
Si      -1.94186576      -0.85260232      -1.06152283       0.00000000
Si       1.30074022      -1.52998939       1.31793107       0.00000000
Si       1.47833885       1.30672403      -1.37315679       0.00000000
H       -0.86312566      -2.56585421      -1.85090061       0.00000000
Si      -2.64857483       2.54436445       0.34211125       0.00000000
Si       2.64893647      -0.28465146      -2.66036638       0.00000000
Si       2.82414194       2.52066575       0.10900436       0.00000000
Si      -3.68743701       0.68953942      -0.60892716       0.00000000
Si       2.69117970      -0.24306309       2.75288676       0.00000000
