10
Lattice="16.290000149 0.0 0.0 0.0 16.290000149 0.0 0.0 0.0 29.1751946751" Properties=species:S:1:pos:R:3:initial_magmoms:R:1 pbc="T T T"
Si      -1.36871839      -1.34407162       1.34246741       0.00000000
Si      -1.38232054       1.34547256      -1.33660319       0.00000000
Si       1.34946361      -1.36461331      -1.35690913       0.00000000
Si       1.36637263       1.36186030       1.35340811       0.00000000
Si       0.00483813       2.70456356      -2.64128872       0.00000000
Si      -0.00148239      -2.70078428       2.67107660       0.00000000
Si       2.71342532      -0.00355122      -2.68653945       0.00000000
Si      -2.70870122      -2.70687674      -0.02316510       0.00000000
Si      -2.69957882       2.71629236       0.05263205       0.00000000
Si      -2.68718213       0.01899414       2.73278213       0.00000000
