10
Lattice="16.290000149 0.0 0.0 0.0 16.290000149 0.0 0.0 0.0 29.1751946751" Properties=species:S:1:pos:R:3:initial_magmoms:R:1 pbc="T T T"
Si       1.80849953       1.32798036       0.60614384       0.00000000
Si      -0.73384822      -0.34355285       2.25961883       0.00000000
Si      -1.22603428       1.87038850      -0.93573602       0.00000000
Si       1.61355709      -1.52659782      -1.08581322       0.00000000
H        0.71807950      -2.51544970       0.98448777       0.00000000
H       -1.18159516      -2.94242689      -0.25461192       0.00000000
Si      -0.27292266      -2.86959430      -1.47104249       0.00000000
Si       0.47716668       2.87360815       1.76860030       0.00000000
Si      -1.46517148       1.84642590       2.66150713       0.00000000
Si      -1.16582644      -1.45013256      -3.06275359       0.00000000
