10
Lattice="16.290000149 0.0 0.0 0.0 16.290000149 0.0 0.0 0.0 29.1751946751" Properties=species:S:1:pos:R:3:initial_magmoms:R:1 pbc="T T T"
Si       0.45310635       2.20840274      -0.61075353       0.00000000
Si       1.07600338       0.08703747       2.09997216       0.00000000
Si      -0.42225309      -1.81275122      -1.48638864       0.00000000
Si      -2.31011913       0.17774019       0.59730376       0.00000000
H        2.73595440       1.01937934      -0.78767191       0.00000000
H       -0.08161290      -2.93241180       1.03752827       0.00000000
H        1.81030772       2.78345604      -0.33557309       0.00000000
Si      -1.27604458      -3.29929518       0.14494237       0.00000000
Si      -2.08316522       2.03163995       2.03342354       0.00000000
Si      -1.98606867      -0.73645462      -2.85035817       0.00000000
