10
Lattice="16.290000149 0.0 0.0 0.0 16.290000149 0.0 0.0 0.0 29.1751946751" Properties=species:S:1:pos:R:3:initial_magmoms:R:1 pbc="T T T"
Si      -1.46504116      -1.28243026       1.30170966       0.00000000
Si      -1.36394542       1.32553360      -1.37298466       0.00000000
Si       1.37350765       1.35827650       1.33164341       0.00000000
Si       1.37556019      -1.39501045      -1.29718751       0.00000000
Si      -0.05292621       2.70946685       2.59323718       0.00000000
Si      -0.22470426      -2.65479761       2.67087237       0.00000000
Si       2.72754875      -0.04569345      -2.67028887       0.00000000
Si       0.01268991      -2.73974997      -2.66235321       0.00000000
Si      -0.00579924       2.67529043      -2.72989379       0.00000000
Si       2.71902908       0.00922014       2.69430005       0.00000000
