10
Lattice="16.290000149 0.0 0.0 0.0 16.290000149 0.0 0.0 0.0 29.1751946751" Properties=species:S:1:pos:R:3:initial_magmoms:R:1 pbc="T T T"
Si       1.37645614       1.35477415      -1.33383155       0.00000000
Si       1.36961434      -1.33928236       1.35638398       0.00000000
Si      -1.31851261       1.36932112       1.38436299       0.00000000
Si      -1.36637263      -1.36186030      -1.35340811       0.00000000
Si      -0.01866834      -2.70246215       2.66751722       0.00000000
Si      -0.00571779       2.71420562      -2.65648900       0.00000000
Si       2.72715779      -0.02078604      -2.68347606       0.00000000
Si      -2.68350059       0.01822851       2.73190688       0.00000000
Si      -2.70855461       2.71695374       0.04977288       0.00000000
Si       2.72041373      -2.70769124       0.00113783       0.00000000
