10
Lattice="16.290000149 0.0 0.0 0.0 16.290000149 0.0 0.0 0.0 29.1751946751" Properties=species:S:1:pos:R:3:initial_magmoms:R:1 pbc="T T T"
Si      -0.38375982      -0.61872679      -2.21121718       0.00000000
Si      -2.00165006      -0.60507577       1.13862032       0.00000000
Si       0.77287906       2.04757157       0.97220501       0.00000000
Si       1.48729330      -1.87695011       0.30377213       0.00000000
H       -2.26343036       2.08674902      -0.29954172       0.00000000
Si       1.79973551       0.70255513       2.57955401       0.00000000
H        2.74923075       1.94729033      -0.10380534       0.00000000
Si      -1.06311799      -1.64991638       2.96414143       0.00000000
Si      -2.13925169      -2.13407147      -1.91400947       0.00000000
H       -0.45942687       3.28940715      -1.40948283       0.00000000
