10
Lattice="16.290000149 0.0 0.0 0.0 16.290000149 0.0 0.0 0.0 29.1751946751" Properties=species:S:1:pos:R:3:initial_magmoms:R:1 pbc="T T T"
Si      -1.30478853      -1.34452953       1.36519488       0.00000000
Si      -1.46552196       1.29155087      -1.27752342       0.00000000
Si       1.23177138       1.35944270       1.44714801       0.00000000
Si       1.37938321      -1.39636431      -1.29759596       0.00000000
Si       2.61375471      -0.08989001       2.60432375       0.00000000
Si      -0.08124662       2.62939971      -2.65511777       0.00000000
Si       2.64338622       2.65443744       0.06036348       0.00000000
Si      -2.60440474       0.06216166       2.71040476       0.00000000
Si       2.71688671      -0.04706360      -2.66801320       0.00000000
Si      -2.58772378      -2.80232165       0.06867841       0.00000000
