10
Lattice="16.290000149 0.0 0.0 0.0 16.290000149 0.0 0.0 0.0 29.1751946751" Properties=species:S:1:pos:R:3:initial_magmoms:R:1 pbc="T T T"
Si      -1.23786082       1.36404316       1.41899394       0.00000000
Si       1.32460507      -1.37321443       1.33444423       0.00000000
Si       1.34999706       1.40996467      -1.30462718       0.00000000
Si      -1.38671884      -1.35630541      -1.33374402       0.00000000
H       -1.88367788       0.53579439       2.49459585       0.00000000
Si       2.61877554       0.03098358       2.65424251       0.00000000
Si      -2.81839809       2.45337176       0.10059607       0.00000000
Si      -0.08900856       2.75809251      -2.59256615       0.00000000
Si       2.68772785       0.04644279      -2.67772854       0.00000000
Si      -0.00443088      -2.70342326      -2.66737135       0.00000000
