10
Lattice="16.290000149 0.0 0.0 0.0 16.290000149 0.0 0.0 0.0 29.1751946751" Properties=species:S:1:pos:R:3:initial_magmoms:R:1 pbc="T T T"
Si      -1.74474047      -0.31345870       1.49429512       0.00000000
Si       0.10976202      -2.30782061      -0.24343782       0.00000000
Si      -0.98165170       0.87660889      -1.98055809       0.00000000
H       -0.84549988       1.98804791       1.02696685       0.00000000
Si       1.86196331       1.15325056       0.98501292       0.00000000
Si      -2.51292800       2.21286620      -0.81690545       0.00000000
Si       1.71906743      -2.23264226      -2.02823036       0.00000000
Si      -0.94245796       3.43279173       0.48699235       0.00000000
Si       0.40527891      -3.19661931       1.99715878       0.00000000
Si      -3.65461266       0.75426122       0.69670365       0.00000000
