10
Lattice="16.290000149 0.0 0.0 0.0 16.290000149 0.0 0.0 0.0 29.1751946751" Properties=species:S:1:pos:R:3:initial_magmoms:R:1 pbc="T T T"
Si       2.06770601      -0.72435766       0.84759776       0.00000000
Si       0.76172041       0.58695640      -2.15368370       0.00000000
Si      -1.28758442      -1.98739957      -0.11518367       0.00000000
Si      -0.60232276       1.51773606       1.75955599       0.00000000
H        0.67795723       1.55665287       2.58118782       0.00000000
H        0.14082705       1.88908290      -2.59691325       0.00000000
Si      -0.08215047       3.51246286       0.06389368       0.00000000
Si       1.28461312      -2.22298555       2.55635973       0.00000000
Si       3.11803635      -1.39631691      -1.22334509       0.00000000
Si      -1.96400550       0.13316586       3.09455455       0.00000000
