10
Lattice="10.86 0.0 0.0 0.0 10.86 0.0 0.0 0.0 10.86" Properties=species:S:1:pos:R:3:initial_magmoms:R:1 pbc="T T T"
Si       1.28139312      -1.21989294      -1.36122498       0.00000000
Si       1.28139312       1.49510706       1.35377502       0.00000000
Si      -1.43360688       1.49510706      -1.36122498       0.00000000
Si       0.02420694      -2.43880848       2.57556846       0.00000000
Si       2.63889312      -2.57739294      -0.00372498       0.00000000
Si      -0.07912596      -2.55627024      -2.70522600       0.00000000
Si       2.63889312       0.13760706       2.71127502       0.00000000
Si       2.63889312       0.13760706      -2.71872498       0.00000000
Si       2.63889312       2.85260706      -0.00372498       0.00000000
Si      -0.07610688       2.85260706       2.71127502       0.00000000
