10
Lattice="16.28999089631971 0.0 0.0 0.0 16.28999089631971 0.0 0.0 0.0 34.40785480372833" Properties=species:S:1:pos:R:3:initial_magmoms:R:1 pbc="T T T"
Si      -1.27797819       1.95421356       0.37501142       0.00000000
Si      -0.22858128      -1.39031892       1.93891811       0.00000000
Si      -1.45508796      -0.86982084      -1.74055672       0.00000000
Si       2.26701414       0.77859684      -0.44713032       0.00000000
Si       0.96314625      -0.30794616       3.72021375       0.00000000
Si      -3.57250193       1.59247782       0.01297177       0.00000000
Si       0.92435976      -3.43883529       1.66165946       0.00000000
Si      -0.88319493       3.71206487      -1.18318356       0.00000000
Si      -3.56849459      -1.66876389      -0.92963194       0.00000000
Si      -2.41560826      -2.27835198       2.33034208       0.00000000
