10
Lattice="16.28999089631971 0.0 0.0 0.0 16.28999089631971 0.0 0.0 0.0 34.40785480372833" Properties=species:S:1:pos:R:3:initial_magmoms:R:1 pbc="T T T"
Si       0.73722187      -1.55437551       1.61558732       0.00000000
Si      -1.68497800       1.28430360       1.07655356       0.00000000
Si       2.18152585       0.57713841      -0.94576923       0.00000000
Si      -2.24199826      -0.95749362      -0.71950305       0.00000000
Si       0.99876108       1.55939283      -2.63461091       0.00000000
Si      -1.34639035      -1.61140680      -2.72186928       0.00000000
Si      -1.37618476      -2.35331856       2.42651209       0.00000000
Si      -1.38019210       0.90792315       3.36911580       0.00000000
Si       1.11828895      -3.58308324       0.25616662       0.00000000
Si      -0.84858424       3.45037091       1.33075894       0.00000000
