10
Lattice="16.28999089631971 0.0 0.0 0.0 16.28999089631971 0.0 0.0 0.0 34.40785480372833" Properties=species:S:1:pos:R:3:initial_magmoms:R:1 pbc="T T T"
Si      -1.34288244       1.31271269      -1.35232235       0.00000000
Si       1.33188669       1.36650553       1.36247611       0.00000000
Si      -1.38394953      -1.34829695       1.36058368       0.00000000
Si       1.33938009      -1.32568643      -1.51380194       0.00000000
Si      -2.11605471      -0.65383796      -2.49214098       0.00000000
Si      -0.47465802      -2.35669682      -2.71865700       0.00000000
Si       2.69386101      -2.70000857      -0.02715125       0.00000000
Si       2.67556734       2.73411456      -0.01549042       0.00000000
Si       2.69192250       0.01032826       2.72052049       0.00000000
Si      -0.02415807      -2.70473267       2.71924740       0.00000000
