10
Lattice="16.28999089631971 0.0 0.0 0.0 16.28999089631971 0.0 0.0 0.0 34.40785480372833" Properties=species:S:1:pos:R:3:initial_magmoms:R:1 pbc="T T T"
Si      -1.35031068      -1.35679899       1.39566251       0.00000000
Si       1.36376622       1.35760860       1.39562810       0.00000000
Si       1.40634828      -1.41581440      -1.31218557       0.00000000
Si      -1.15559631       1.23062805      -2.04907492       0.00000000
Si      -2.67996564       2.68011225       0.05564785       0.00000000
Si      -2.72016936      -2.70769423       0.01891745       0.00000000
Si       2.72223819       2.71130760       0.00432851       0.00000000
Si       2.55347379       0.03556107      -2.90310041       0.00000000
Si      -2.70808218      -0.00498474       2.76000353       0.00000000
Si       0.00957852       2.71042794       2.76079491       0.00000000
