10
Lattice="16.28999089631971 0.0 0.0 0.0 16.28999089631971 0.0 0.0 0.0 34.40785480372833" Properties=species:S:1:pos:R:3:initial_magmoms:R:1 pbc="T T T"
Si      -1.34786718      -1.36304710       1.35670247       0.00000000
Si       1.35863487      -1.35548854      -1.35973037       0.00000000
Si      -1.35755973       1.36130457      -1.36210451       0.00000000
Si       1.38769623       1.36311928       1.37806976       0.00000000
Si      -2.59564860       0.08977217       2.68453674       0.00000000
Si      -2.70892926       2.71087732      -0.00677835       0.00000000
Si       2.71536381      -2.71102831       0.00058493       0.00000000
Si       2.71650411       2.71161037       0.00055053       0.00000000
Si      -2.71182888      -2.71637143      -0.00430098       0.00000000
Si      -2.71261080       0.00177248      -2.71774034       0.00000000
