10
Lattice="16.28999089631971 0.0 0.0 0.0 16.28999089631971 0.0 0.0 0.0 34.40785480372833" Properties=species:S:1:pos:R:3:initial_magmoms:R:1 pbc="T T T"
Si       0.46633383      -0.43240176       2.30371039       0.00000000
Si      -1.43158149       1.94383683       0.24061426       0.00000000
Si       1.90682595       1.29658626      -0.94869390       0.00000000
Si      -1.58317623      -1.59666435      -1.16904193       0.00000000
Si      -3.03849225       0.16876440       0.82341483       0.00000000
Si       0.89909397       0.98256393      -3.20492143       0.00000000
Si      -1.34180730       0.75367314       3.13514226       0.00000000
Si      -1.06300395       2.92933296       2.32518090       0.00000000
Si      -0.44996238      -2.47384175       2.97954985       0.00000000
Si      -3.63169260      -0.41260941      -1.46150886       0.00000000
