10
Lattice="16.28999089631971 0.0 0.0 0.0 16.28999089631971 0.0 0.0 0.0 34.40785480372833" Properties=species:S:1:pos:R:3:initial_magmoms:R:1 pbc="T T T"
Si      -1.39430997       1.20213684       1.53665565       0.00000000
Si      -1.98588132      -0.73876779      -1.28073474       0.00000000
Si       1.29285585      -1.52612865       1.50519998       0.00000000
Si       1.39323483       1.50754176      -1.60533863       0.00000000
Si      -2.69169444       2.64246606       0.23560104       0.00000000
Si       2.70760977       2.71788876       0.01825682       0.00000000
Si      -0.06276537       2.54156580       2.90444779       0.00000000
Si       2.58734070      -2.89618281      -0.01627492       0.00000000
Si       2.65116492      -0.16858521       2.89791029       0.00000000
Si      -3.81238128       0.86296275      -0.84405199       0.00000000
