10
Lattice="16.28999089631971 0.0 0.0 0.0 16.28999089631971 0.0 0.0 0.0 34.40785480372833" Properties=species:S:1:pos:R:3:initial_magmoms:R:1 pbc="T T T"
Si       0.34410996       1.46896704       1.81529062       0.00000000
Si       2.21162814      -0.46801170      -1.11801505       0.00000000
Si      -0.61494750       2.10251772      -1.34978649       0.00000000
Si       0.16661412      -2.47018302       0.76499026       0.00000000
Si      -2.62508463      -0.12922857       0.37986293       0.00000000
Si      -0.84111786      -2.78420535      -1.49123726       0.00000000
Si      -1.88630055       0.68859459      -2.77568320       0.00000000
Si       0.94561821      -1.85911254      -2.72992073       0.00000000
Si       2.10137742       2.70734913       0.58661984       0.00000000
Si      -2.83789719      -1.29432195      -1.61668837       0.00000000
