10
Lattice="16.28999089631971 0.0 0.0 0.0 16.28999089631971 0.0 0.0 0.0 34.40785480372833" Properties=species:S:1:pos:R:3:initial_magmoms:R:1 pbc="T T T"
Si      -0.21281256      -1.16509338      -1.99655130       0.00000000
Si      -0.74464848       2.17075653       0.61180641       0.00000000
Si      -0.54670869      -1.69370388       1.57443550       0.00000000
Si       2.62508463       0.12922857      -0.37986293       0.00000000
Si       0.73878408       0.81782316      -3.15554613       0.00000000
Si       2.01013713       2.23174629      -1.72964942       0.00000000
Si       2.79169875      -2.34095445       0.38512733       0.00000000
Si       2.96919459       1.59819561       1.43542769       0.00000000
Si       0.98846091       2.73870738       2.27546153       0.00000000
Si       1.78396677      -2.65497678      -1.87110019       0.00000000
