10
Lattice="16.28999089631971 0.0 0.0 0.0 16.28999089631971 0.0 0.0 0.0 34.40785480372833" Properties=species:S:1:pos:R:3:initial_magmoms:R:1 pbc="T T T"
Si      -1.00773198      -0.31402233      -2.25622752       0.00000000
Si      -1.90682595      -1.29658626       0.94869390       0.00000000
Si      -0.16661412       2.47018302      -0.76499026       0.00000000
Si       1.50444666       0.29245437       2.25660601       0.00000000
Si       2.04501402       2.00217132      -1.88300531       0.00000000
Si      -3.33840744       0.64725057       1.18930817       0.00000000
Si       0.77900409       0.61107048      -3.49491099       0.00000000
Si      -2.79169875       2.34095445      -0.38512733       0.00000000
Si      -1.44049212      -1.72898802       3.25240429       0.00000000
Si      -3.00451131       1.17586107      -2.38167863       0.00000000
