10
Lattice="16.28999089631971 0.0 0.0 0.0 16.28999089631971 0.0 0.0 0.0 34.40785480372833" Properties=species:S:1:pos:R:3:initial_magmoms:R:1 pbc="T T T"
Si      -0.36857754      -0.98549613      -2.08456664       0.00000000
Si      -0.27880335      -2.17565982       0.80996135       0.00000000
Si      -1.85355765       1.21329549       0.79299827       0.00000000
Si       1.96514415       0.85680513       0.97914487       0.00000000
Si       1.22344416       3.06800973       1.04696279       0.00000000
Si      -1.13733522      -1.59019722       2.87608537       0.00000000
Si       1.52933778      -3.36173472      -0.02147051       0.00000000
Si      -0.86638365       2.92012911       2.09420085       0.00000000
Si      -1.97548830      -2.76056856      -1.50176607       0.00000000
Si       0.17813115       0.70820775      -3.65900214       0.00000000
