10
Lattice="16.28999089631971 0.0 0.0 0.0 16.28999089631971 0.0 0.0 0.0 34.40785480372833" Properties=species:S:1:pos:R:3:initial_magmoms:R:1 pbc="T T T"
Si       2.30931927       0.03733668       0.27467806       0.00000000
Si      -0.85638159       2.18966922      -0.01379756       0.00000000
Si      -0.63081396      -0.94949523      -2.05814139       0.00000000
Si      -0.75649131      -1.21616253       1.90261780       0.00000000
Si      -2.66968665       0.11601738       2.14653522       0.00000000
Si      -3.06924940       1.63463634       0.25399893       0.00000000
Si       3.04693047      -0.46473741      -1.88551709       0.00000000
Si       0.45675531      -3.00017817      -2.16528751       0.00000000
Si       2.89123065       2.24788968       0.85489804       0.00000000
Si       0.98202636      -1.05231771       3.49494540       0.00000000
