10
Lattice="16.28999089631971 0.0 0.0 0.0 16.28999089631971 0.0 0.0 0.0 34.40785480372833" Properties=species:S:1:pos:R:3:initial_magmoms:R:1 pbc="T T T"
Si       1.96030602       0.75155318      -1.32394618       0.00000000
Si      -1.74992067       1.74313818      -0.27553826       0.00000000
Si      -0.94004703      -1.86209361      -1.40002199       0.00000000
Si       0.57542796      -0.65453220       2.43325604       0.00000000
Si       0.43456833       2.05213505      -2.93120679       0.00000000
Si      -2.30099508      -0.67403133      -2.95257408       0.00000000
Si      -0.86281614       3.45254237      -1.56342498       0.00000000
Si      -2.41869033      -3.13378875       0.03089827       0.00000000
Si       3.74969736       1.09557648       0.68437261       0.00000000
Si      -3.54877650       0.77878794      -1.62473981       0.00000000
