10
Lattice="16.28999089631971 0.0 0.0 0.0 16.28999089631971 0.0 0.0 0.0 34.40785480372833" Properties=species:S:1:pos:R:3:initial_magmoms:R:1 pbc="T T T"
Si       1.42988733      -1.45011951      -1.20991848       0.00000000
Si       0.33047523       2.11287816      -1.07125475       0.00000000
Si       1.34949618       0.56058777       1.89704373       0.00000000
Si      -2.26701414      -0.77859684       0.44713032       0.00000000
Si       2.08702593       1.32721146      -2.79622470       0.00000000
Si       3.59471430       0.56769021       1.11278505       0.00000000
Si       0.13677084       3.74925494       0.66895789       0.00000000
Si      -1.54179963       2.47052511      -2.46797358       0.00000000
Si      -3.54499233       1.17561672       0.82214174       0.00000000
Si       3.56192253      -1.46663757      -0.14358406       0.00000000
