10
Lattice="16.28999089631971 0.0 0.0 0.0 16.28999089631971 0.0 0.0 0.0 34.40785480372833" Properties=species:S:1:pos:R:3:initial_magmoms:R:1 pbc="T T T"
Si       1.00075986       0.67987944       2.01595734       0.00000000
Si       0.31513005       1.62484605      -1.68275149       0.00000000
Si      -2.33823402      -0.02228472       0.58754886       0.00000000
Si       1.05681375      -2.02598730      -0.77710184       0.00000000
Si      -2.42836659      -1.14592005       2.67194346       0.00000000
Si       3.20794083       1.46163654       1.58967819       0.00000000
Si      -1.03436613       1.06425828      -3.57979521       0.00000000
Si      -3.52996155      -1.10465748      -1.19374678       0.00000000
Si      -0.23180670       2.56186314       2.91813180       0.00000000
Si       2.56034817       1.63194849      -2.46701016       0.00000000
