10
Lattice="16.28999089631971 0.0 0.0 0.0 16.28999089631971 0.0 0.0 0.0 34.40785480372833" Properties=species:S:1:pos:R:3:initial_magmoms:R:1 pbc="T T T"
Si      -1.33188669      -1.36650553      -1.36247611       0.00000000
Si      -1.35485559       1.35557072       1.35673688       0.00000000
Si       1.36003581      -1.35617727       1.35804438       0.00000000
Si       1.34368065       1.36760903      -1.37796654       0.00000000
Si       2.65882122      -0.07640499      -2.69037920       0.00000000
Si      -2.67476913      -0.05379284      -2.71479847       0.00000000
Si      -2.71396287       0.00001466       2.71464363       0.00000000
Si       0.00149868      -2.71524231       2.71471245       0.00000000
Si       0.00120546       2.71521557       2.71498771       0.00000000
Si      -2.71583622      -2.71480248      -0.00189243       0.00000000
