10
Lattice="16.28999089631971 0.0 0.0 0.0 16.28999089631971 0.0 0.0 0.0 34.40785480372833" Properties=species:S:1:pos:R:3:initial_magmoms:R:1 pbc="T T T"
Si      -1.46324925      -1.30569237      -1.38595402       0.00000000
Si      -1.29448485       1.37005416       1.52147490       0.00000000
Si       1.40807502      -1.33566597       1.54179275       0.00000000
Si       1.28510181       1.46437326      -1.63527348       0.00000000
Si       0.44579214      -2.19271545      -2.69042534       0.00000000
Si      -2.61037476      -2.75706784       0.20496082       0.00000000
Si       2.72821662       2.66421321       0.03434594       0.00000000
Si       1.77018543      -0.15662835      -3.39527064       0.00000000
Si      -2.58734070       2.89618281       0.01627492       0.00000000
Si       2.72321559      -2.77967999       0.22938009       0.00000000
