10
Lattice="16.28999089631971 0.0 0.0 0.0 16.28999089631971 0.0 0.0 0.0 34.40785480372833" Properties=species:S:1:pos:R:3:initial_magmoms:R:1 pbc="T T T"
Si       1.35791811       1.35746199      -1.35887017       0.00000000
Si      -1.35676152      -1.35920502      -1.35845727       0.00000000
Si      -1.35801585       1.35812988       1.35917984       0.00000000
Si       1.35666378      -1.36164852       1.35942070       0.00000000
Si       2.71586880       2.71207323      -0.00385368       0.00000000
Si       2.71696023      -2.71281117      -0.00089460       0.00000000
Si      -2.71521720      -2.71490606      -0.00158276       0.00000000
Si       2.71466334      -0.00120546      -2.71567587       0.00000000
Si      -2.71498914      -0.00027693      -2.71571027       0.00000000
Si      -0.00029322       2.71445157      -2.71626080       0.00000000
