10
Lattice="16.28999089631971 0.0 0.0 0.0 16.28999089631971 0.0 0.0 0.0 34.40785480372833" Properties=species:S:1:pos:R:3:initial_magmoms:R:1 pbc="T T T"
Si       2.28525894      -0.45768384       0.23455848       0.00000000
Si      -0.48508362       1.62100161       1.75999716       0.00000000
Si      -1.32439329      -2.03608710       0.70484530       0.00000000
Si       0.57013371       0.74741778      -2.60969961       0.00000000
Si      -2.41829937      -0.85882509      -1.60320048       0.00000000
Si      -0.77481756      -1.06881948      -3.34004115       0.00000000
Si       2.52221328      -1.94773014      -1.82034858       0.00000000
Si      -1.31913162       3.44225619       0.33055645       0.00000000
Si       2.60688870      -1.57118679       2.31721449       0.00000000
Si      -1.77018543       0.15662835       3.39527064       0.00000000
