10
Lattice="16.28999089631971 0.0 0.0 0.0 16.28999089631971 0.0 0.0 0.0 34.40785480372833" Properties=species:S:1:pos:R:3:initial_magmoms:R:1 pbc="T T T"
Si       1.23427701       1.15871096       1.61564379       0.00000000
Si      -1.04314644       1.74567550      -1.30416165       0.00000000
Si      -1.41705081      -1.45707601       1.42974492       0.00000000
Si       1.74167793      -1.05397996      -1.49794680       0.00000000
Si       2.88813555       2.21057581       0.30820754       0.00000000
Si      -2.69892720       0.76010606      -2.71918547       0.00000000
Si      -0.08086356       2.60272498       2.92805644       0.00000000
Si       2.85501798      -2.71020055      -0.12968328       0.00000000
Si      -2.95218783       2.63269858       0.00030967       0.00000000
Si       2.66331726      -0.14410036       2.93951771       0.00000000
