10
Lattice="16.28999089631971 0.0 0.0 0.0 16.28999089631971 0.0 0.0 0.0 34.40785480372833" Properties=species:S:1:pos:R:3:initial_magmoms:R:1 pbc="T T T"
Si      -1.88729424       0.93592566      -1.07190850       0.00000000
Si       1.64348181      -0.20999439      -1.73684067       0.00000000
Si      -0.56187468      -2.16283144       0.89302196       0.00000000
Si       1.09390608      -1.17726201       2.30804578       0.00000000
Si       2.41829937       0.85882509       1.60320048       0.00000000
Si       2.98843308       1.60624287      -1.00649913       0.00000000
Si      -2.74204683      -0.88462845      -2.33017005       0.00000000
Si      -0.81513531      -0.29023893       3.61251710       0.00000000
Si      -3.61304055       1.36111095       0.55596243       0.00000000
Si      -0.27986220      -3.77345537      -1.01984939       0.00000000
