10
Lattice="16.28999089631971 0.0 0.0 0.0 16.28999089631971 0.0 0.0 0.0 34.40785480372833" Properties=species:S:1:pos:R:3:initial_magmoms:R:1 pbc="T T T"
Si      -1.35847197      -1.35369900       1.39129959       0.00000000
Si       1.35830907       1.35754344       1.39271031       0.00000000
Si       1.29448485      -1.37005416      -1.52147490       0.00000000
Si      -1.29285585       1.52612865      -1.50519998       0.00000000
Si       2.70255987      -2.70572013       0.02031785       0.00000000
Si      -2.68716582       2.72826549       0.03145568       0.00000000
Si      -2.72223819      -2.71130760      -0.00432851       0.00000000
Si       2.71793763       2.72451879       0.00356121       0.00000000
Si      -2.71265967      -0.00087966       2.75646640       0.00000000
Si       0.00293220       2.71544526       2.75595028       0.00000000
