10
Lattice="16.28999089631971 0.0 0.0 0.0 16.28999089631971 0.0 0.0 0.0 34.40785480372833" Properties=species:S:1:pos:R:3:initial_magmoms:R:1 pbc="T T T"
Si       1.34061813       1.23113304       1.63736750       0.00000000
Si       1.33323876       1.30080537      -1.62859349       0.00000000
Si      -1.26600993      -1.39110084      -1.61190567       0.00000000
Si      -2.21162814       0.46801170       1.11801505       0.00000000
Si      -2.04501402      -2.00217132       1.88300531       0.00000000
Si      -0.11025072       3.17536083       1.70463490       0.00000000
Si      -2.82657564       2.57052942      -0.23177144       0.00000000
Si      -3.05274600      -2.31619365      -0.37322221       0.00000000
Si      -1.86751818       1.93697874       2.93330567       0.00000000
Si      -2.61340470      -0.05554890      -3.03794001       0.00000000
