10
Lattice="16.28999089631971 0.0 0.0 0.0 16.28999089631971 0.0 0.0 0.0 34.40785480372833" Properties=species:S:1:pos:R:3:initial_magmoms:R:1 pbc="T T T"
Si      -0.83051959      -1.84105182       1.28492562       0.00000000
Si      -0.52966446      -1.08429498      -2.07032178       0.00000000
Si       2.23448301       0.74663586       0.63526023       0.00000000
Si      -1.77718687       1.76811660       0.16122295       0.00000000
Si      -2.03943374      -0.49085028       2.74660308       0.00000000
Si       0.71011368       2.19612006       2.73998300       0.00000000
Si      -2.66809742      -2.50194852      -0.17933384       0.00000000
Si      -0.73671851       3.45455514       1.47512203       0.00000000
Si       3.62473677      -0.12979872      -1.22412893       0.00000000
Si      -3.49463573       0.73795329       1.42152832       0.00000000
