10
Lattice="16.28999089631971 0.0 0.0 0.0 16.28999089631971 0.0 0.0 0.0 34.40785480372833" Properties=species:S:1:pos:R:3:initial_magmoms:R:1 pbc="T T T"
Si       2.10031857       0.90018540       0.41970725       0.00000000
Si      -0.03448593      -2.33326557      -0.05168063       0.00000000
Si      -1.03130361       0.60123132       2.02961727       0.00000000
Si      -0.71490294       0.82052730      -2.09347828       0.00000000
Si      -3.15892422       0.95042376       1.18500718       0.00000000
Si       3.18945168       0.30687102      -1.59776404       0.00000000
Si       1.43246115       0.96428655      -3.15472034       0.00000000
Si       0.42266034      -2.86387974       2.18194092       0.00000000
Si       2.58181839       0.00299736       2.56899510       0.00000000
Si      -1.51641981       2.96782623      -1.52733112       0.00000000
