10
Lattice="16.28999089631971 0.0 0.0 0.0 16.28999089631971 0.0 0.0 0.0 34.40785480372833" Properties=species:S:1:pos:R:3:initial_magmoms:R:1 pbc="T T T"
Si       0.48508362      -1.62100161      -1.75999716       0.00000000
Si      -0.83404800       1.82125458      -1.42944072       0.00000000
Si       1.44311481       1.19983995       1.66961942       0.00000000
Si      -1.28510181      -1.46437326       1.63527348       0.00000000
Si       1.41478650       2.89808874      -1.68213215       0.00000000
Si       2.96864073       2.17303713       0.11760611       0.00000000
Si       2.77034256      -2.07868545      -1.52543869       0.00000000
Si      -2.47920768       2.93935131       0.04620977       0.00000000
Si      -0.83930967      -3.65708871      -1.05515187       0.00000000
Si      -2.74835106      -2.77006563       0.24931946       0.00000000
