10
Lattice="16.28999089631971 0.0 0.0 0.0 16.28999089631971 0.0 0.0 0.0 34.40785480372833" Properties=species:S:1:pos:R:3:initial_magmoms:R:1 pbc="T T T"
Si       1.35917244       1.35317772       1.37504531       0.00000000
Si      -1.35444834      -1.36700793       1.38065379       0.00000000
Si       1.41592680      -1.19068497      -1.50553717       0.00000000
Si      -1.41346701       1.35435060      -1.41755968       0.00000000
Si      -2.68599294      -2.70643689       0.01286166       0.00000000
Si       2.71911051      -2.71018359      -0.01503280       0.00000000
Si      -2.71735119       2.71311579       0.01752737       0.00000000
Si       2.72202642       2.71544526      -0.00993699       0.00000000
Si       0.00400734       2.71072116       2.73646166       0.00000000
Si      -2.71063971      -0.00462636       2.73739068       0.00000000
