10
Lattice="16.28999089631971 0.0 0.0 0.0 16.28999089631971 0.0 0.0 0.0 34.40785480372833" Properties=species:S:1:pos:R:3:initial_magmoms:R:1 pbc="T T T"
Si       0.71490294      -0.82052730       2.09347828       0.00000000
Si      -0.80151687       2.14729893       0.56614716       0.00000000
Si      -1.50410457      -1.24282926      -1.38360943       0.00000000
Si       2.14736409       0.14375925      -1.06124206       0.00000000
Si      -3.46445946      -1.28627469      -0.10779987       0.00000000
Si       2.81522151       0.07965810       2.51318553       0.00000000
Si       2.14959582       2.33447103      -2.05573284       0.00000000
Si       1.09822293       3.37159017       1.32150322       0.00000000
Si       0.68041701      -3.15379287       2.04179765       0.00000000
Si      -2.86215300       1.90423584       1.70115970       0.00000000
