10
Lattice="16.28999089631971 0.0 0.0 0.0 16.28999089631971 0.0 0.0 0.0 34.40785480372833" Properties=species:S:1:pos:R:3:initial_magmoms:R:1 pbc="T T T"
Si      -0.94438017       2.05545591       0.55331302       0.00000000
Si      -1.89973980      -1.22429124      -0.75535606       0.00000000
Si       1.64641401      -0.94815945       1.45328538       0.00000000
Si       1.10455974       0.86714928      -1.93874607       0.00000000
Si      -2.45684151       2.19058146      -1.31025184       0.00000000
Si      -2.48963328       0.15625368      -2.56662096       0.00000000
Si       3.32407224       0.54869607      -1.36138194       0.00000000
Si       1.13226903       3.41570349       0.54746368       0.00000000
Si       1.05137289      -1.03711914      -3.37723606       0.00000000
Si      -1.09822293      -3.37159017      -1.32150322       0.00000000
