10
Lattice="16.28999089631971 0.0 0.0 0.0 16.28999089631971 0.0 0.0 0.0 34.40785480372833" Properties=species:S:1:pos:R:3:initial_magmoms:R:1 pbc="T T T"
Si      -1.62963531      -1.55160621       0.63523817       0.00000000
Si       0.42635817      -0.43047954      -2.29132356       0.00000000
Si       2.13545610      -0.39630312       1.01066248       0.00000000
Si      -1.21498965       2.03336667       0.48239839       0.00000000
Si       0.54367875       3.10288662      -0.89181769       0.00000000
Si      -2.75025699       0.16390998       1.81260680       0.00000000
Si      -0.17759358      -3.12031692       1.59845220       0.00000000
Si       2.74258440       2.18286000      -1.30319823       0.00000000
Si       2.85671214      -2.47463019       0.11970499       0.00000000
Si       0.49694274      -2.77425216      -2.55292662       0.00000000
