10
Lattice="16.28999089631971 0.0 0.0 0.0 16.28999089631971 0.0 0.0 0.0 34.40785480372833" Properties=species:S:1:pos:R:3:initial_magmoms:R:1 pbc="T T T"
Si       1.31437494       1.21034700       1.62359545       0.00000000
Si       1.64515968      -1.11809673      -1.47565049       0.00000000
Si      -0.29385531       1.91192472      -1.69465661       0.00000000
Si      -1.39323483      -1.50754176       1.60533863       0.00000000
Si       2.67573024       2.74745511       0.22440815       0.00000000
Si       2.47920768      -2.93935131      -0.04620977       0.00000000
Si      -0.10155186       2.40103197       3.12913262       0.00000000
Si       0.92949111      -0.57847419      -3.82715342       0.00000000
Si      -3.37911615      -2.24630955       0.32460388       0.00000000
Si       2.61755865      -0.30915162       3.11409982       0.00000000
