10
Lattice="16.28999089631971 0.0 0.0 0.0 16.28999089631971 0.0 0.0 0.0 34.40785480372833" Properties=species:S:1:pos:R:3:initial_magmoms:R:1 pbc="T T T"
Si      -1.81403811      -1.03101039      -1.20485506       0.00000000
Si      -1.33938009       1.32568643       1.51380194       0.00000000
Si       1.35448092      -1.37432214       1.48665069       0.00000000
Si       1.41705081       1.45707601      -1.42974492       0.00000000
Si      -3.45543480       0.67184847      -0.97833904       0.00000000
Si       2.65132782       2.61578697       0.18589886       0.00000000
Si      -2.68226253       2.63839912       0.16147959       0.00000000
Si       2.87551080      -2.57583996       0.04731427       0.00000000
Si      -2.78101251      -2.73541680       0.07902801       0.00000000
Si       0.92010807      -2.13526062      -3.16283513       0.00000000
