10
Lattice="16.28999089631971 0.0 0.0 0.0 16.28999089631971 0.0 0.0 0.0 34.40785480372833" Properties=species:S:1:pos:R:3:initial_magmoms:R:1 pbc="T T T"
Si       1.36029645      -1.35116265      -1.36031530       0.00000000
Si      -1.35666378       1.36164852      -1.35942070       0.00000000
Si      -1.35058761      -1.35895415       1.37593647       0.00000000
Si       1.37639097       1.37759643       1.36513240       0.00000000
Si      -2.53149858       0.15504822       2.75090953       0.00000000
Si       2.71186475      -2.70946025       0.00209888       0.00000000
Si      -2.71386513      -2.70997505      -0.00044730       0.00000000
Si       0.00091224      -2.71111023      -2.71794679       0.00000000
Si      -2.71342530       0.00244350      -2.71787797       0.00000000
Si       2.70743000       2.72510523      -0.00595256       0.00000000
