10
Lattice="16.28999089631971 0.0 0.0 0.0 16.28999089631971 0.0 0.0 0.0 34.40785480372833" Properties=species:S:1:pos:R:3:initial_magmoms:R:1 pbc="T T T"
Si       1.16463726       0.08744472       2.06454126       0.00000000
Si      -1.17343386      -1.89062459      -1.03522971       0.00000000
Si       1.83992685       1.18180692      -1.16656456       0.00000000
Si      -1.92801924       1.65006297       0.21088586       0.00000000
Si       0.14310765       2.18831715      -2.51480270       0.00000000
Si      -0.29800926       2.02883805       2.83992270       0.00000000
Si      -2.58387093      -0.54823343      -2.50399862       0.00000000
Si       2.84744869      -0.52276891      -2.51514678       0.00000000
Si      -1.20650256       3.55828986      -1.05704430       0.00000000
Si      -3.53535354       0.56146743       1.66186591       0.00000000
