10
Lattice="16.28999089631971 0.0 0.0 0.0 16.28999089631971 0.0 0.0 0.0 34.40785480372833" Properties=species:S:1:pos:R:3:initial_magmoms:R:1 pbc="T T T"
Si       1.31382501      -1.49918499      -1.22675770       0.00000000
Si      -1.33584516      -1.36818081       1.38190280       0.00000000
Si       1.37986793       1.34469063       1.38248773       0.00000000
Si      -1.32783048       1.26501624      -1.70705033       0.00000000
Si      -2.68084530       2.69716788      -0.01936819       0.00000000
Si       2.72481920       2.69907381       0.03011377       0.00000000
Si      -2.71091664      -2.72435589       0.00979248       0.00000000
Si      -2.69522937      -0.01343925       2.74252777       0.00000000
Si       0.02267568       2.70334179       2.74259659       0.00000000
Si       0.38129744       2.35802637      -3.04392840       0.00000000
