10
Lattice="16.28999089631971 0.0 0.0 0.0 16.28999089631971 0.0 0.0 0.0 34.40785480372833" Properties=species:S:1:pos:R:3:initial_magmoms:R:1 pbc="T T T"
Si       2.01163581      -0.84519036      -0.86718165       0.00000000
Si      -2.11076046      -1.02058479      -0.56786755       0.00000000
Si      -0.31936545       2.37548925      -0.39169924       0.00000000
Si       0.48920499      -0.97735113       2.19728684       0.00000000
Si       1.59381360      -3.04290684      -0.10841921       0.00000000
Si      -1.40849856       2.96880363       1.62577205       0.00000000
Si       0.12142566      -3.24127017       1.74361902       0.00000000
Si       3.66722828       0.52375608       0.31438475       0.00000000
Si      -3.54330306      -0.26464734       1.15438417       0.00000000
Si      -2.71979469      -0.66466458      -2.84191836       0.00000000
