10
Lattice="16.28999089631971 0.0 0.0 0.0 16.28999089631971 0.0 0.0 0.0 34.40785480372833" Properties=species:S:1:pos:R:3:initial_magmoms:R:1 pbc="T T T"
Si      -1.79168823      -0.87153129       1.17791916       0.00000000
Si       1.32994818      -1.41478650      -1.26676029       0.00000000
Si      -1.40007663       1.34379468      -1.26910003       0.00000000
Si       1.74534318       1.00796004       1.27649772       0.00000000
Si      -0.54519372      -2.06006598       2.77805734       0.00000000
Si       2.63024856      -2.57557932       0.40976337       0.00000000
Si      -0.03751587       2.67107130      -2.63223677       0.00000000
Si       2.67874389      -0.04354317      -2.63357868       0.00000000
Si       0.84973527       1.66187322       3.27886395       0.00000000
Si      -2.74782978      -0.04380381      -2.62869276       0.00000000
