10
Lattice="16.28999089631971 0.0 0.0 0.0 16.28999089631971 0.0 0.0 0.0 34.40785480372833" Properties=species:S:1:pos:R:3:initial_magmoms:R:1 pbc="T T T"
Si      -1.30272759      -1.35925389      -1.54028710       0.00000000
Si       0.56840697       1.93012784      -1.37086273       0.00000000
Si       1.21384935      -1.48408416       1.50208950       0.00000000
Si      -1.49442831       1.20684630       1.52891388       0.00000000
Si       2.40598480       2.59102454       0.09339673       0.00000000
Si      -2.41606764       0.29696670      -2.90855062       0.00000000
Si      -2.69928558      -2.68196931       0.06645537       0.00000000
Si      -2.92346856       2.50965762       0.20503996       0.00000000
Si       2.56788948      -0.13460427       2.89142785       0.00000000
Si      -0.14965623       2.58630044       2.89731159       0.00000000
