10
Lattice="16.28999089631971 0.0 0.0 0.0 16.28999089631971 0.0 0.0 0.0 34.40785480372833" Properties=species:S:1:pos:R:3:initial_magmoms:R:1 pbc="T T T"
Si       1.37173203       1.34739477      -1.39365653       0.00000000
Si      -1.35189858      -1.36420605      -1.40084778       0.00000000
Si       1.08211212      -1.69290567       1.31548184       0.00000000
Si      -1.39394249       1.52741556       1.64555658       0.00000000
Si      -2.69424287       2.68820838      -0.03096709       0.00000000
Si      -2.68293761      -2.71171485      -0.02976281       0.00000000
Si       2.71194291       2.69847108      -0.01204276       0.00000000
Si       0.01341970       2.70080055      -2.75552018       0.00000000
Si      -2.70012356      -0.01558953      -2.75816959       0.00000000
Si       2.72086983      -2.74607046      -0.03585300       0.00000000
