10
Lattice="16.28999089631971 0.0 0.0 0.0 16.28999089631971 0.0 0.0 0.0 34.40785480372833" Properties=species:S:1:pos:R:3:initial_magmoms:R:1 pbc="T T T"
Si       1.29225312      -1.36230012      -1.48074286       0.00000000
Si      -1.67979222      -1.07637804       1.39479199       0.00000000
Si      -1.41043707       1.34239115      -1.46876892       0.00000000
Si       1.17343386       1.89062459       1.03522971       0.00000000
Si       2.76242010      -2.63041146      -0.18628423       0.00000000
Si      -0.75458538       3.54068756       1.24611557       0.00000000
Si      -2.59134804       2.85639353      -0.09379586       0.00000000
Si       2.65201529      -0.00811494      -2.84260651       0.00000000
Si      -0.05984946       2.70134531      -2.84470539       0.00000000
Si      -0.06222780      -2.72526813      -2.84625375       0.00000000
