10
Lattice="16.28999089631971 0.0 0.0 0.0 16.28999089631971 0.0 0.0 0.0 34.40785480372833" Properties=species:S:1:pos:R:3:initial_magmoms:R:1 pbc="T T T"
Si       1.07484678       1.88807616      -0.60155286       0.00000000
Si       0.39908871      -0.56861874       2.18723974       0.00000000
Si      -2.21951250       0.31845321      -0.57736413       0.00000000
Si       1.07885412      -1.37316555      -1.54415657       0.00000000
Si      -2.27269935      -1.58581521      -2.01585412       0.00000000
Si       2.23174044      -1.98275364       1.71581745       0.00000000
Si       0.01412343       3.36354291       0.84168541       0.00000000
Si       1.44394560      -3.24371367      -0.16973404       0.00000000
Si      -1.67765823      -1.49685552       2.81466732       0.00000000
Si      -3.32407224      -0.54869607       1.36138194       0.00000000
