10
Lattice="16.28999089631971 0.0 0.0 0.0 16.28999089631971 0.0 0.0 0.0 34.40785480372833" Properties=species:S:1:pos:R:3:initial_magmoms:R:1 pbc="T T T"
Si       1.06072335      -1.47546675      -1.44323828       0.00000000
Si       1.29663513      -0.21346416       2.00460274       0.00000000
Si       0.32891139       1.76819709      -1.59914035       0.00000000
Si      -2.20592664      -0.49653549       1.06716021       0.00000000
Si      -2.57567706      -0.56361771      -1.50544771       0.00000000
Si      -2.20535649       1.85530298       1.44554360       0.00000000
Si       1.38111507       3.07410938      -0.02281242       0.00000000
Si      -0.09127287       2.87574605       1.82922581       0.00000000
Si      -1.88599104       1.73721677      -2.27497982       0.00000000
Si      -0.01412343      -3.36354291      -0.84168541       0.00000000
