10
Lattice="16.28999089631971 0.0 0.0 0.0 16.28999089631971 0.0 0.0 0.0 34.40785480372833" Properties=species:S:1:pos:R:3:initial_magmoms:R:1 pbc="T T T"
Si      -1.11334005       1.65622059      -1.36826352       0.00000000
Si       1.30272759       1.35925389       1.54028710       0.00000000
Si       1.18407123      -0.60186663      -2.08133230       0.00000000
Si      -1.39655799      -1.32271542       1.60674247       0.00000000
Si      -0.81221940      -1.51591482      -3.12155115       0.00000000
Si       0.80133768       2.93484454      -2.15751133       0.00000000
Si       1.87113456       3.28938173       0.16942437       0.00000000
Si      -2.86233219      -2.49021972       0.15129142       0.00000000
Si      -2.08324665       0.45688563      -3.15093547       0.00000000
Si      -3.35196072      -0.88213608      -1.60340693       0.00000000
