10
Lattice="16.28999089631971 0.0 0.0 0.0 16.28999089631971 0.0 0.0 0.0 34.40785480372833" Properties=species:S:1:pos:R:3:initial_magmoms:R:1 pbc="T T T"
Si      -1.11311199      -1.63075932       1.17017739       0.00000000
Si       0.85853187      -0.58546260      -2.06612402       0.00000000
Si      -1.83210372       1.36788759      -0.58734241       0.00000000
Si       1.53274239       1.32773274       1.20957440       0.00000000
Si      -1.72665692       2.52613917       1.53469441       0.00000000
Si       1.13733522       1.59019722      -2.87608537       0.00000000
Si      -0.71622243       2.80349271      -2.08308710       0.00000000
Si      -1.79962798      -3.07726245      -0.50648391       0.00000000
Si       0.44517312       3.37841568       1.31672052       0.00000000
Si       0.43999290      -2.92724784       2.30598131       0.00000000
