10
Lattice="16.28999089631971 0.0 0.0 0.0 16.28999089631971 0.0 0.0 0.0 34.40785480372833" Properties=species:S:1:pos:R:3:initial_magmoms:R:1 pbc="T T T"
Si       1.35472201       1.35746525      -1.35732181       0.00000000
Si      -1.35750711       1.35756299       1.35718418       0.00000000
Si       1.35884338      -1.35747140       1.35697774       0.00000000
Si      -1.35914418      -1.35703883      -1.35773471       0.00000000
Si      -2.71343574       0.00066626      -2.71282001       0.00000000
Si       2.71389445       0.00206069       2.71261357       0.00000000
Si      -2.71291446       0.00310976       2.71509093       0.00000000
Si      -2.71472265      -2.71504194       0.00003441       0.00000000
Si      -2.71521135       2.71471547       0.00030967       0.00000000
Si       0.00287193      -2.71528629       2.71488448       0.00000000
