10
Lattice="16.28999089631971 0.0 0.0 0.0 16.28999089631971 0.0 0.0 0.0 34.40785480372833" Properties=species:S:1:pos:R:3:initial_magmoms:R:1 pbc="T T T"
Si      -1.35713543      -1.35697329       1.35656484       0.00000000
Si      -1.35747752       1.35742941      -1.35749385       0.00000000
Si       1.35798470      -1.35759231      -1.35742504       0.00000000
Si       1.36011706       1.35718506       1.35735622       0.00000000
Si       0.00210217      -2.71399545      -2.71471245       0.00000000
Si      -0.00208436      -2.71448415       2.71498771       0.00000000
Si       2.71517628      -2.71450044       0.00003441       0.00000000
Si       2.71687044      -0.00314397       2.71288883       0.00000000
Si      -2.71500467      -2.71489140       0.00010322       0.00000000
Si       2.71612110      -0.00016290      -2.71443718       0.00000000
