10
Lattice="16.28999089631971 0.0 0.0 0.0 16.28999089631971 0.0 0.0 0.0 34.40785480372833" Properties=species:S:1:pos:R:3:initial_magmoms:R:1 pbc="T T T"
Si       1.35597145       1.35781488      -1.35790675       0.00000000
Si       1.35675337      -1.36032903       1.35553261       0.00000000
Si      -1.36011706      -1.35718506      -1.35735622       0.00000000
Si      -1.36421809       1.36009845       1.36262063       0.00000000
Si       2.71112026      -2.71347417      -0.00092901       0.00000000
Si       2.71235830       0.00006516      -2.71443718       0.00000000
Si       2.71102252       2.71734697      -0.00227092       0.00000000
Si      -0.00213236      -2.71477737      -2.71478126       0.00000000
Si       0.01506499      -2.71580364       2.71426514       0.00000000
Si      -0.00287193       2.71528629      -2.71488448       0.00000000
