10
Lattice="16.28999089631971 0.0 0.0 0.0 16.28999089631971 0.0 0.0 0.0 34.40785480372833" Properties=species:S:1:pos:R:3:initial_magmoms:R:1 pbc="T T T"
Si       1.26887827      -1.45360557      -1.30467777       0.00000000
Si      -1.47016698       1.26811134      -1.29445863       0.00000000
Si       1.30336257       1.41283170       1.33602334       0.00000000
Si      -1.04178885      -1.75796793       1.24876497       0.00000000
Si       2.61056666      -0.09813096      -2.66341031       0.00000000
Si      -0.11040481       2.62229652      -2.65632228       0.00000000
Si       2.56954844      -2.73290814       0.22492427       0.00000000
Si      -2.76242010       2.63041146       0.18628423       0.00000000
Si       2.72674694       2.70801264       0.02542742       0.00000000
Si      -0.10838814      -2.80947114      -2.66131142       0.00000000
