10
Lattice="16.28999089631971 0.0 0.0 0.0 16.28999089631971 0.0 0.0 0.0 34.40785480372833" Properties=species:S:1:pos:R:3:initial_magmoms:R:1 pbc="T T T"
Si       1.87227486      -0.35764695       1.39671883       0.00000000
Si      -1.60840944       0.46294292       1.73192034       0.00000000
Si       0.54535662       2.15590724      -1.01166031       0.00000000
Si      -0.73599849      -1.98742887      -1.38680936       0.00000000
Si       1.30347693       1.25435673      -3.03704541       0.00000000
Si      -0.52931097       2.24374292       2.91238568       0.00000000
Si      -1.91876326      -1.00517445      -3.07565104       0.00000000
Si       1.67857047       1.27872983       3.13693147       0.00000000
Si       1.54179963      -2.47052511       2.46797358       0.00000000
Si       3.62882556      -1.14331365      -0.32825112       0.00000000
