10
Lattice="10.86 0.0 0.0 0.0 10.86 0.0 0.0 0.0 10.86" Properties=species:S:1:pos:R:3:initial_magmoms:R:1 pbc="T T T"
Si      -1.26706878      -1.38488892      -1.39265382       0.00000000
Si       1.44793122      -1.38488892       1.32234618       0.00000000
Si       1.44793122       1.33011108      -1.39265382       0.00000000
Si      -2.47347360       2.72760846      -0.00579924       0.00000000
Si       0.01019754       2.73197418       2.58385464       0.00000000
Si      -2.61050508      -0.14208138       2.71614030       0.00000000
Si      -2.62456878      -2.74238892      -0.03515382       0.00000000
Si      -2.62456878      -0.02738892      -2.75015382       0.00000000
Si       0.09043122      -2.74238892       2.67984618       0.00000000
Si       0.09043122       2.68761108      -2.75015382       0.00000000
