10
Lattice="10.86 0.0 0.0 0.0 10.86 0.0 0.0 0.0 10.86" Properties=species:S:1:pos:R:3:initial_magmoms:R:1 pbc="T T T"
Si       1.34343630      -1.24280754       1.32120588       0.00000000
Si      -1.37156370      -1.24280754      -1.39379412       0.00000000
Si      -1.37156370       1.47219246       1.32120588       0.00000000
Si      -0.01406370      -2.60030754       2.67870588       0.00000000
Si       2.70093630      -2.60030754      -0.03629412       0.00000000
Si      -2.72906370      -2.60030754      -0.03629412       0.00000000
Si       2.61050508       0.14208138      -2.71614030       0.00000000
Si      -0.01406370      -2.60030754      -2.75129412       0.00000000
Si       2.70093630       0.11469246       2.67870588       0.00000000
Si      -2.72906370       0.11469246       2.67870588       0.00000000
