10
Lattice="10.86 0.0 0.0 0.0 10.86 0.0 0.0 0.0 10.86" Properties=species:S:1:pos:R:3:initial_magmoms:R:1 pbc="T T T"
Si       1.08455562       0.46411296       1.98643518       0.00000000
Si      -1.45833510      -1.52463540       1.11761346       0.00000000
Si      -1.45833510       1.19036460      -1.59738654       0.00000000
Si       1.25666490      -1.52463540      -1.59738654       0.00000000
Si       2.19770562       2.41802244       0.17739810       0.00000000
Si      -0.14451402       2.39609610       2.42794848       0.00000000
Si      -2.81583510      -0.16713540       2.47511346       0.00000000
Si      -0.16272624      -2.89172478       2.43902568       0.00000000
Si      -2.81583510       2.54786460      -0.23988654       0.00000000
Si      -0.10083510       2.54786460      -2.95488654       0.00000000
