10
Lattice="10.86 0.0 0.0 0.0 10.86 0.0 0.0 0.0 10.86" Properties=species:S:1:pos:R:3:initial_magmoms:R:1 pbc="T T T"
Si       1.05567888       1.08651042       1.58624418       0.00000000
Si       1.05567888      -1.62848958      -1.12875582       0.00000000
Si      -1.65932112       1.08651042      -1.12875582       0.00000000
Si       2.41317888       2.44401042       0.22874418       0.00000000
Si       2.41317888      -0.27098958      -2.48625582       0.00000000
Si      -0.30182112       2.44401042      -2.48625582       0.00000000
Si       2.41317888      -0.27098958       2.94374418       0.00000000
Si       2.41317888      -2.98598958       0.22874418       0.00000000
Si      -0.30182112      -2.98598958      -2.48625582       0.00000000
Si      -3.01682112      -0.27098958      -2.48625582       0.00000000
