10
Lattice="10.86 0.0 0.0 0.0 10.86 0.0 0.0 0.0 10.86" Properties=species:S:1:pos:R:3:initial_magmoms:R:1 pbc="T T T"
Si       1.32363852       1.23050316       1.30157100       0.00000000
Si      -1.39136148      -1.48449684       1.30157100       0.00000000
Si       1.32363852      -1.48449684      -1.41342900       0.00000000
Si       0.16965492       2.32161822       2.83665372       0.00000000
Si       2.68113852       2.58800316      -0.05592900       0.00000000
Si       2.68113852      -0.12699684       2.65907100       0.00000000
Si       0.06486678       2.58948012      -2.77507752       0.00000000
Si      -2.71559730      -0.18778026       2.70216348       0.00000000
Si       2.68113852      -0.12699684      -2.77092900       0.00000000
Si      -2.98275330       2.45969226       0.01089258       0.00000000
