10
Lattice="10.86 0.0 0.0 0.0 10.86 0.0 0.0 0.0 10.86" Properties=species:S:1:pos:R:3:initial_magmoms:R:1 pbc="T T T"
Si       1.25877174      -1.35897696      -1.35335148       0.00000000
Si       1.25877174       1.35602304       1.36164852       0.00000000
Si      -1.45622826       1.35602304      -1.35335148       0.00000000
Si       2.61627174      -0.00147696      -2.71085148       0.00000000
Si       2.61627174       2.71352304       0.00414852       0.00000000
Si       2.61627174      -2.71647696       0.00414852       0.00000000
Si       2.61627174      -0.00147696       2.71914852       0.00000000
Si      -0.06486678      -2.58948012       2.77507752       0.00000000
Si      -0.21628776       2.77481688       2.63255088       0.00000000
Si      -0.09872826       2.71352304      -2.71085148       0.00000000
