10
Lattice="10.86 0.0 0.0 0.0 10.86 0.0 0.0 0.0 10.86" Properties=species:S:1:pos:R:3:initial_magmoms:R:1 pbc="T T T"
Si       1.35336234       1.33949412       1.34821470       0.00000000
Si      -1.36163766       1.33949412      -1.36678530       0.00000000
Si      -1.36163766      -1.37550588       1.34821470       0.00000000
Si      -2.68907718      -0.01459584      -2.65953798       0.00000000
Si      -0.00413766       2.69699412       2.70571470       0.00000000
Si       2.71086234       2.69699412      -0.00928530       0.00000000
Si       2.59330284       0.04328796      -2.81088294       0.00000000
Si      -2.71913766       2.69699412      -0.00928530       0.00000000
Si       2.71086234      -0.01800588       2.70571470       0.00000000
Si      -0.00413766       2.69699412      -2.72428530       0.00000000
