10
Lattice="10.86 0.0 0.0 0.0 10.86 0.0 0.0 0.0 10.86" Properties=species:S:1:pos:R:3:initial_magmoms:R:1 pbc="T T T"
Si      -1.23994050       1.29620616      -1.27090236       0.00000000
Si       1.47505950      -1.41879384      -1.27090236       0.00000000
Si       1.47505950       1.29620616       1.44409764       0.00000000
Si      -2.62266828       0.04299474      -2.57113758       0.00000000
Si      -2.59744050       2.65370616       0.08659764       0.00000000
Si       0.11755950       2.65370616      -2.62840236       0.00000000
Si      -2.59330284      -0.04328796       2.81088294       0.00000000
Si       0.21628776      -2.77481688      -2.63255088       0.00000000
Si       0.11755950       2.65370616       2.80159764       0.00000000
Si       2.83255950      -0.06129384      -2.62840236       0.00000000
