10
Lattice="16.28999089631971 0.0 0.0 0.0 16.28999089631971 0.0 0.0 0.0 34.51007289658418" Properties=species:S:1:pos:R:3:initial_magmoms:R:1 pbc="T T T"
Si      -0.69100551      -1.79167194       1.30876074       0.00000000
Si       1.76262687       1.28998881       0.91016917       0.00000000
Si      -1.85317483       1.03001670      -1.07443721       0.00000000
Si       1.01946078      -1.69818363      -1.35424504       0.00000000
Si      -0.05426199       1.96664283      -2.44676554       0.00000000
Si       1.18353366      -3.12723365       0.53549310       0.00000000
Si       1.64572983       2.98519137      -0.97746385       0.00000000
Si      -0.27855900       3.64804776       0.14066314       0.00000000
Si       2.63484234      -0.40386168       2.56917283       0.00000000
Si      -2.78880632      -0.83719197      -2.40856286       0.00000000
