10
Lattice="16.28999089631971 0.0 0.0 0.0 16.28999089631971 0.0 0.0 0.0 34.51007289658418" Properties=species:S:1:pos:R:3:initial_magmoms:R:1 pbc="T T T"
Si       0.63861687       1.92940389       1.23221735       0.00000000
Si      -0.39610764      -1.56126618       1.78641492       0.00000000
Si       0.95601123      -0.13958901      -2.21251103       0.00000000
Si      -2.07128979       0.62936415      -1.07819881       0.00000000
Si       2.79735138      -0.58450149       1.17096194       0.00000000
Si      -0.89129106       1.05966450      -3.07640217       0.00000000
Si       0.40366620       1.21176423       3.47413098       0.00000000
Si       2.67807600      -2.69252523      -0.02319078       0.00000000
Si      -0.89666676       3.62937195       0.72250329       0.00000000
Si      -2.95482355       2.60135892      -0.05576831       0.00000000
