10
Lattice="16.28999089631971 0.0 0.0 0.0 16.28999089631971 0.0 0.0 0.0 34.51007289658418" Properties=species:S:1:pos:R:3:initial_magmoms:R:1 pbc="T T T"
Si      -1.70785663      -0.96668118       1.37917310       0.00000000
Si       1.08147681       1.79277966       1.32077167       0.00000000
Si       1.66125420      -1.91233197       0.25008812       0.00000000
Si      -0.78097518       0.27295524      -2.72326039       0.00000000
Si      -1.68615509      -2.35939473      -1.85036212       0.00000000
Si       2.26271358       0.29695041       2.74022007       0.00000000
Si      -0.48335688      -2.43993249       2.75754759       0.00000000
Si       1.24105365       1.99453131      -2.98139588       0.00000000
Si      -3.32590391      -2.00178036      -0.06235974       0.00000000
Si       2.04452532      -1.53308448      -3.09462350       0.00000000
