10
Lattice="16.28999089631971 0.0 0.0 0.0 16.28999089631971 0.0 0.0 0.0 34.51007289658418" Properties=species:S:1:pos:R:3:initial_magmoms:R:1 pbc="T T T"
Si      -1.34819298      -1.34520606      -1.36670318       0.00000000
Si      -1.17170712       1.45798432       1.45556667       0.00000000
Si       1.37171574       1.36654855      -1.36773848       0.00000000
Si       1.33511211      -1.37887749       1.39731363       0.00000000
Si       2.16295362       0.46989808       2.61762500       0.00000000
Si       0.65070405       2.33096542       2.71342502       0.00000000
Si      -2.69224830      -2.69792766       0.02032644       0.00000000
Si       0.01009980      -2.70327078      -2.72353648       0.00000000
Si      -2.70412371       0.01009980      -2.72481335       0.00000000
Si      -2.69775432       2.73171571       0.01915310       0.00000000
