10
Lattice="16.28999089631971 0.0 0.0 0.0 16.28999089631971 0.0 0.0 0.0 34.51007289658418" Properties=species:S:1:pos:R:3:initial_magmoms:R:1 pbc="T T T"
Si      -0.29791152      -1.90685431      -1.53525047       0.00000000
Si      -2.20437909       1.08223755      -0.56669022       0.00000000
Si       2.31896295       0.99329415      -0.54695045       0.00000000
Si       1.84713939       0.21951752       2.78418248       0.00000000
Si      -0.45748836      -2.10860596       2.76691708       0.00000000
Si      -1.58877999       2.22623538      -2.63198120       0.00000000
Si      -2.71705797       2.26798665       1.40252466       0.00000000
Si      -0.06296085      -1.18921465      -3.77716410       0.00000000
Si       1.55330037      -3.41133355      -1.52548411       0.00000000
Si      -0.83272851       3.18353352       2.67096522       0.00000000
