10
Lattice="16.28999089631971 0.0 0.0 0.0 16.28999089631971 0.0 0.0 0.0 34.51007289658418" Properties=species:S:1:pos:R:3:initial_magmoms:R:1 pbc="T T T"
Si       1.36961433      -1.34346888       1.34786757       0.00000000
Si      -1.32343218       1.38722382       1.35284048       0.00000000
Si       1.47532014       1.12047507      -1.46202148       0.00000000
Si      -1.85117931      -0.81533079      -1.24992482       0.00000000
Si      -0.14035464       1.34508159      -3.13665821       0.00000000
Si      -0.96096339      -1.02263733      -3.40666517       0.00000000
Si       2.73667113      -2.55998979      -0.12355648       0.00000000
Si      -2.68964190       0.01299942       2.70146382       0.00000000
Si       0.02889846      -2.70233181       2.70046303       0.00000000
Si       2.67628410       2.72665278      -0.04573968       0.00000000
