10
Lattice="16.28999089631971 0.0 0.0 0.0 16.28999089631971 0.0 0.0 0.0 34.51007289658418" Properties=species:S:1:pos:R:3:initial_magmoms:R:1 pbc="T T T"
Si       1.35345465      -1.35495333      -1.36035332       0.00000000
Si      -1.37114559      -1.33791399       1.36128510       0.00000000
Si      -1.36304946       1.36273995      -1.35852429       0.00000000
Si       1.36884870       1.34840475       1.38627040       0.00000000
Si      -0.08356770       2.61143361       2.75055788       0.00000000
Si       2.70795186      -2.70749574      -0.00224316       0.00000000
Si      -0.04435767      -2.77863417       2.63933185       0.00000000
Si       2.71075374       0.00337203      -2.71628936       0.00000000
Si      -0.00417024      -2.71120986      -2.71663446       0.00000000
Si       2.71578735       2.71899648       0.00189806       0.00000000
