10
Lattice="16.28999089631971 0.0 0.0 0.0 16.28999089631971 0.0 0.0 0.0 34.51007289658418" Properties=species:S:1:pos:R:3:initial_magmoms:R:1 pbc="T T T"
Si      -0.29382273       1.93870548       1.27048904       0.00000000
Si      -1.76262687      -1.28998881      -0.91016917       0.00000000
Si       0.87221547      -1.69385049       1.65900366       0.00000000
Si      -0.11689704       1.69520256      -1.88763302       0.00000000
Si      -2.04118587       2.35805895      -0.76950604       0.00000000
Si      -0.98176572      -1.74733056       3.16309152       0.00000000
Si       2.90421378      -1.16831880      -2.10080186       0.00000000
Si      -0.74316609      -2.98817244      -2.26441421       0.00000000
Si      -1.81688886       0.67665402      -3.35693471       0.00000000
Si       1.55364246      -3.53634071       0.43520677       0.00000000
