10
Lattice="16.28999089631971 0.0 0.0 0.0 16.28999089631971 0.0 0.0 0.0 34.51007289658418" Properties=species:S:1:pos:R:3:initial_magmoms:R:1 pbc="T T T"
Si       0.82603332       1.68614532      -1.36356276       0.00000000
Si      -0.27394893      -1.83757716      -1.46629931       0.00000000
Si       2.00406096       0.13732470       1.25768580       0.00000000
Si      -1.86919605       0.52615071       1.38185311       0.00000000
Si       0.84194865      -0.02164941       3.36435438       0.00000000
Si       2.26458693       0.45471906      -2.85329442       0.00000000
Si       3.09404115      -1.85627808       0.91586334       0.00000000
Si      -0.84571164       2.16326313      -2.94750697       0.00000000
Si      -2.56143960      -1.87291017      -2.08810215       0.00000000
Si       1.84417461       3.32790039       0.05131651       0.00000000
