10
Lattice="16.28999089631971 0.0 0.0 0.0 16.28999089631971 0.0 0.0 0.0 34.51007289658418" Properties=species:S:1:pos:R:3:initial_magmoms:R:1 pbc="T T T"
Si      -0.82603332      -1.68614532       1.36356276       0.00000000
Si      -1.67174496       0.47711781      -1.58394421       0.00000000
Si       1.01814129       1.64175507       1.41487927       0.00000000
Si       1.43855361      -1.23142626      -1.48973166       0.00000000
Si       1.17802764      -1.54882062       2.62124856       0.00000000
Si       1.70601912       2.81254995      -0.52983345       0.00000000
Si       2.75788071       0.23267007       2.19080418       0.00000000
Si       1.00012455       0.02290374      -3.38889105       0.00000000
Si       0.95648364       2.30405760      -2.70245081       0.00000000
Si      -3.65158269       0.25783812      -0.41332737       0.00000000
