10
Lattice="16.28999089631971 0.0 0.0 0.0 16.28999089631971 0.0 0.0 0.0 34.51007289658418" Properties=species:S:1:pos:R:3:initial_magmoms:R:1 pbc="T T T"
Si      -0.89021592       0.20730654       2.15674034       0.00000000
Si       1.85800482      -1.49871258      -0.06111737       0.00000000
Si      -0.85313988      -0.95091246      -2.04361864       0.00000000
Si       0.82060875       2.36771892       0.27000696       0.00000000
Si      -1.91060523       0.96221772      -2.92659386       0.00000000
Si       0.96096339       1.02263733       3.40666517       0.00000000
Si       2.43628353       2.14311240       1.94464369       0.00000000
Si       1.01605617      -1.47706317      -3.42547175       0.00000000
Si      -2.62003473       2.00293695       2.07201845       0.00000000
Si       3.02011713      -1.33973847      -2.16778595       0.00000000
