10
Lattice="16.28999089631971 0.0 0.0 0.0 16.28999089631971 0.0 0.0 0.0 34.51007289658418" Properties=species:S:1:pos:R:3:initial_magmoms:R:1 pbc="T T T"
Si      -1.35731538      -1.35694071      -1.35655721       0.00000000
Si       1.35692442      -1.35755973       1.35738546       0.00000000
Si       1.35865116       1.35640314      -1.35707486       0.00000000
Si      -1.35759231       1.35782037       1.35731644       0.00000000
Si       2.71370223       0.00247608      -2.71183755       0.00000000
Si       0.00096111       2.71031391      -2.71742819       0.00000000
Si       0.00066789      -2.71373481       2.71483993       0.00000000
Si       0.00071676       2.71389771       2.71501248       0.00000000
Si      -2.71495004       2.71448415       0.00034510       0.00000000
Si      -2.71433265       0.00149868       2.71518503       0.00000000
