10
Lattice="16.28999089631971 0.0 0.0 0.0 16.28999089631971 0.0 0.0 0.0 34.51007289658418" Properties=species:S:1:pos:R:3:initial_magmoms:R:1 pbc="T T T"
Si       1.35848826       1.35658233      -1.35824821       0.00000000
Si      -1.35804843       1.35817875       1.35731644       0.00000000
Si      -1.35694071      -1.35874890      -1.35842076       0.00000000
Si       1.36304946      -1.36273995       1.35852429       0.00000000
Si      -0.00809613      -2.70065394       2.71980939       0.00000000
Si      -2.71314837       2.71270854      -0.00079373       0.00000000
Si      -2.71319724      -2.71492398      -0.00096628       0.00000000
Si       0.00166158       2.71383255      -2.71508150       0.00000000
Si       2.71538010       2.71355562      -0.00051765       0.00000000
Si      -2.71386513      -0.00118917      -2.71580621       0.00000000
