10
Lattice="16.28999089631971 0.0 0.0 0.0 16.28999089631971 0.0 0.0 0.0 34.51007289658418" Properties=species:S:1:pos:R:3:initial_magmoms:R:1 pbc="T T T"
Si      -1.35066906      -1.34583093      -1.37281147       0.00000000
Si       1.36502055       1.36787130      -1.36925693       0.00000000
Si       1.28686113      -1.45531602       1.37895426       0.00000000
Si      -1.27562103       1.38323277       1.48438260       0.00000000
Si       2.21400648       0.29460465       2.58031959       0.00000000
Si       0.72337374       2.17469871       2.76204974       0.00000000
Si      -2.70816363      -2.70399339       0.01194049       0.00000000
Si      -2.69478954       2.73059496       0.01318286       0.00000000
Si       0.00737937      -2.70400968      -2.73012790       0.00000000
Si      -2.70576900       0.00869886      -2.73092163       0.00000000
