10
Lattice="16.28999089631971 0.0 0.0 0.0 16.28999089631971 0.0 0.0 0.0 34.51007289658418" Properties=species:S:1:pos:R:3:initial_magmoms:R:1 pbc="T T T"
Si      -0.67543227       1.75410461      -1.37357069       0.00000000
Si       1.84164966      -0.73474416      -1.28601859       0.00000000
Si       0.77232519       0.67688438       2.16112550       0.00000000
Si      -1.67249430      -1.69797186       0.36566894       0.00000000
Si       1.87411563       1.63103040      -1.76443199       0.00000000
Si      -0.98316666      -2.16744966      -2.38561365       0.00000000
Si       2.73351087      -2.05016166       0.71808600       0.00000000
Si      -1.25092539       0.34520139       3.26072057       0.00000000
Si      -2.80816794       0.87322286      -2.18345353       0.00000000
Si      -1.35685926       3.59659484      -0.14977380       0.00000000
