10
Lattice="16.28999089631971 0.0 0.0 0.0 16.28999089631971 0.0 0.0 0.0 34.51007289658418" Properties=species:S:1:pos:R:3:initial_magmoms:R:1 pbc="T T T"
Si      -1.90102671      -1.13010246      -0.87766066       0.00000000
Si       1.24620129      -1.59526341       1.30579287       0.00000000
Si      -0.91025262       1.42496775       1.74921304       0.00000000
Si       1.06290621       1.40115177      -1.75942803       0.00000000
Si       2.99765322      -0.09860337       1.60213103       0.00000000
Si      -3.20952096      -1.50754176       1.05935630       0.00000000
Si      -3.25988964       0.57067128      -1.90837359       0.00000000
Si      -3.03663519       0.47223081       2.28160023       0.00000000
Si      -1.86424389       3.38493561       0.73699753       0.00000000
Si      -2.52170829       2.73505842      -1.40821882       0.00000000
