10
Lattice="16.28999089631971 0.0 0.0 0.0 16.28999089631971 0.0 0.0 0.0 34.51007289658418" Properties=species:S:1:pos:R:3:initial_magmoms:R:1 pbc="T T T"
Si       0.08778681      -1.87875176       1.39655441       0.00000000
Si       1.82811267       0.54123525      -1.47188994       0.00000000
Si       0.82161873       1.12493853       2.01173131       0.00000000
Si      -1.94217525      -0.51549705      -1.42040088       0.00000000
Si       1.35125550      -1.19609325      -2.96351966       0.00000000
Si      -3.03215544       1.47810573      -1.07857842       0.00000000
Si      -0.88383024      -0.83725713      -3.48700324       0.00000000
Si       1.91640447      -0.76792689       3.11432980       0.00000000
Si       0.22983561      -3.79249838       0.06342955       0.00000000
Si      -1.45230237       3.25959642      -1.50902280       0.00000000
