10
Lattice="16.28999089631971 0.0 0.0 0.0 16.28999089631971 0.0 0.0 0.0 34.51007289658418" Properties=species:S:1:pos:R:3:initial_magmoms:R:1 pbc="T T T"
Si      -1.40748858       1.29746592       1.29216138       0.00000000
Si       1.34482095       1.36860435      -1.34941362       0.00000000
Si      -1.36438524      -1.35207000      -1.35044893       0.00000000
Si       1.30049586      -1.39237146       1.46112279       0.00000000
Si       0.53864514       1.88346609       2.55526527       0.00000000
Si      -2.08539693      -0.38765313       2.73071457       0.00000000
Si      -0.57314736      -2.24872047       2.63491456       0.00000000
Si       2.42416377       0.33979311       2.80577402       0.00000000
Si       2.70334179       0.00821016      -2.70721320       0.00000000
Si      -0.01101204      -2.70806752      -2.70738575       0.00000000
