10
Lattice="16.28999089631971 0.0 0.0 0.0 16.28999089631971 0.0 0.0 0.0 34.51007289658418" Properties=species:S:1:pos:R:3:initial_magmoms:R:1 pbc="T T T"
Si       0.43842906      -1.25433000       1.89915939       0.00000000
Si       0.91378755      -0.37260117      -2.11988594       0.00000000
Si      -0.04364091       2.28115386       0.68644024       0.00000000
Si      -2.21798124      -0.89086752      -0.12927481       0.00000000
Si      -2.67186951       0.45421407       1.80494684       0.00000000
Si      -1.00012455      -0.02290374       3.38889105       0.00000000
Si      -2.84781780       0.18609696      -2.12575266       0.00000000
Si      -2.35338372       2.59830387       0.88149128       0.00000000
Si      -1.62774567      -3.24605943      -0.44656059       0.00000000
Si      -0.96925500      -0.15390792      -3.53597307       0.00000000
