10
Lattice="16.28999089631971 0.0 0.0 0.0 16.28999089631971 0.0 0.0 0.0 34.51007289658418" Properties=species:S:1:pos:R:3:initial_magmoms:R:1 pbc="T T T"
Si       2.14733151      -0.68157360       0.41170540       0.00000000
Si      -0.43842906       1.25433000      -1.89915939       0.00000000
Si      -0.87928533      -2.16021690      -0.33819890       0.00000000
Si      -1.43855361       1.23142626       1.48973166       0.00000000
Si      -2.65641030       0.36346248      -2.02843420       0.00000000
Si       2.68442910       1.16507709       1.70604092       0.00000000
Si      -3.11029857       1.70854407      -0.09421255       0.00000000
Si       1.88779923      -2.63275722       1.70255540       0.00000000
Si      -2.26458693      -0.45471906       2.85329442       0.00000000
Si      -2.53853586      -2.29229622       1.38699511       0.00000000
