10
Lattice="16.28999089631971 0.0 0.0 0.0 16.28999089631971 0.0 0.0 0.0 34.51007289658418" Properties=species:S:1:pos:R:3:initial_magmoms:R:1 pbc="T T T"
Si      -1.35682668       1.35725022      -1.35683329       0.00000000
Si       1.35689184       1.35697329       1.35773056       0.00000000
Si       1.35734796      -1.35775521      -1.35731644       0.00000000
Si      -1.35848826      -1.35658233       1.35824821       0.00000000
Si      -2.71370223      -0.00136836      -2.71463287       0.00000000
Si      -0.00114030      -2.71397916      -2.71477091       0.00000000
Si       2.71524978       2.71474479      -0.00006902       0.00000000
Si      -2.71549413       2.71458189       0.00010353       0.00000000
Si      -2.71542897      -2.71533123      -0.00017255       0.00000000
Si       2.71531494      -2.71595025       0.00048314       0.00000000
