10
Lattice="16.28999089631971 0.0 0.0 0.0 16.28999089631971 0.0 0.0 0.0 34.51007289658418" Properties=species:S:1:pos:R:3:initial_magmoms:R:1 pbc="T T T"
Si      -1.45241640       1.26302886       1.36428747       0.00000000
Si       1.34693865       1.37059173      -1.38437235       0.00000000
Si      -1.36884870      -1.34840475      -1.38627040       0.00000000
Si       1.41240816      -1.37137365       1.59581568       0.00000000
Si       2.68081272      -2.68221366      -0.03696031       0.00000000
Si       2.70135441       2.70716994       0.00793732       0.00000000
Si      -2.73999429      -2.68631874      -0.02498531       0.00000000
Si       2.69863398       0.01255959      -2.74638216       0.00000000
Si      -0.01539405      -2.70335808      -2.74662373       0.00000000
Si      -2.73927753       2.71834488      -0.01466679       0.00000000
