10
Lattice="16.28999089631971 0.0 0.0 0.0 16.28999089631971 0.0 0.0 0.0 34.51007289658418" Properties=species:S:1:pos:R:3:initial_magmoms:R:1 pbc="T T T"
Si      -2.38407408       0.19802124      -0.12323554       0.00000000
Si       0.19337859      -1.85057658       1.55882086       0.00000000
Si       1.38605094      -0.42070554      -1.95334024       0.00000000
Si       1.17416691       2.01279240       0.87041355       0.00000000
Si       0.28230570       3.32820990      -1.13369104       0.00000000
Si      -1.75733262      -1.54585584       2.83269190       0.00000000
Si      -2.93597928      -0.80034399      -2.16267846       0.00000000
Si       3.45186729       1.30781007       0.73541006       0.00000000
Si      -2.54251062       1.89550440      -2.23328611       0.00000000
Si       3.65101254       0.43911324      -1.47761862       0.00000000
