10
Lattice="16.28999089631971 0.0 0.0 0.0 16.28999089631971 0.0 0.0 0.0 34.51007289658418" Properties=species:S:1:pos:R:3:initial_magmoms:R:1 pbc="T T T"
Si       1.51207038       1.00880712       1.46291732       0.00000000
Si      -2.14824375       0.29646171       0.92159201       0.00000000
Si       0.49205574      -2.30511645       0.08603366       0.00000000
Si       0.41252796       0.78190371      -2.24353560       0.00000000
Si       0.25384707       2.88904779       1.90747633       0.00000000
Si      -0.25747974      -2.81360880      -2.08658370       0.00000000
Si       1.21718880      -1.28528100      -3.16429937       0.00000000
Si       3.20486202       1.71385461       0.06146247       0.00000000
Si       2.16397989       2.27856375      -1.94719744       0.00000000
Si      -3.57798447      -0.64723428      -0.75763456       0.00000000
