10
Lattice="16.28999089631971 0.0 0.0 0.0 16.28999089631971 0.0 0.0 0.0 34.51007289658418" Properties=species:S:1:pos:R:3:initial_magmoms:R:1 pbc="T T T"
Si       2.27770038      -0.70498233      -0.13500348       0.00000000
Si      -0.39982176       1.06145640       2.19142536       0.00000000
Si      -1.17416691      -2.01279240      -0.87041355       0.00000000
Si      -0.89186121       1.31541750      -2.00410458       0.00000000
Si      -2.73351087       2.05016166      -0.71808600       0.00000000
Si      -1.96118568       2.72704604       1.44303950       0.00000000
Si       0.21188403      -2.43349794      -2.82375378       0.00000000
Si       2.47684563      -1.57367916      -2.34803216       0.00000000
Si       2.51007723      -2.31277275       1.62977361       0.00000000
Si      -0.98078832      -3.86336898       0.68840732       0.00000000
