10
Lattice="16.28999089631971 0.0 0.0 0.0 16.28999089631971 0.0 0.0 0.0 34.51007289658418" Properties=species:S:1:pos:R:3:initial_magmoms:R:1 pbc="T T T"
Si      -0.04243545       0.28554741      -2.34347683       0.00000000
Si      -0.13569570      -2.36524284       0.17192928       0.00000000
Si      -1.40310657       1.35181655       1.40956472       0.00000000
Si       2.31200712       0.17436816       0.69203088       0.00000000
Si       0.71201961       2.55230810      -2.01873686       0.00000000
Si       1.92393045      -1.00646136      -2.76412034       0.00000000
Si       1.04894568      -2.93189049      -1.78251528       0.00000000
Si      -2.84579784      -0.28419534       2.32622178       0.00000000
Si       0.90518643      -2.92995198       2.18058919       0.00000000
Si       2.43139653      -1.19708694       2.68819814       0.00000000
