10
Lattice="16.28999089631971 0.0 0.0 0.0 16.28999089631971 0.0 0.0 0.0 34.51007289658418" Properties=species:S:1:pos:R:3:initial_magmoms:R:1 pbc="T T T"
Si       0.58929075      -2.30604498       0.18669960       0.00000000
Si       1.75985757       1.60616142      -0.72271035       0.00000000
Si      -0.83416203       0.41314698       2.33281321       0.00000000
Si      -1.56911796       0.35062596      -2.18210764       0.00000000
Si       1.33312473      -2.72390140      -2.06435920       0.00000000
Si      -2.20685517      -1.45691244       2.71169951       0.00000000
Si      -1.75777245       2.60480358       2.14752853       0.00000000
Si       0.00891063       1.40095629      -3.66376394       0.00000000
Si       1.10791548       3.07012743      -2.42781950       0.00000000
Si       2.04478596       3.43279170       0.82085705       0.00000000
