10
Lattice="16.28999089631971 0.0 0.0 0.0 16.28999089631971 0.0 0.0 0.0 34.51007289658418" Properties=species:S:1:pos:R:3:initial_magmoms:R:1 pbc="T T T"
Si       1.35740335      -1.35641943       1.35735095       0.00000000
Si       1.35763141       1.35853713      -1.35683329       0.00000000
Si      -1.35744127      -1.35816246      -1.35766154       0.00000000
Si      -1.35771672       1.35809730       1.35773056       0.00000000
Si       2.71401826      -2.71440270       0.00020706       0.00000000
Si       0.00074445      -2.71340901       2.71532307       0.00000000
Si      -2.71441966       0.00198738       2.71508150       0.00000000
Si      -2.71487578      -2.71492398       0.00003451       0.00000000
Si       2.71561468       0.00174303       2.71456385       0.00000000
Si       2.71494679       2.71547784      -0.00027608       0.00000000
