10
Lattice="16.28999089631971 0.0 0.0 0.0 16.28999089631971 0.0 0.0 0.0 34.51007289658418" Properties=species:S:1:pos:R:3:initial_magmoms:R:1 pbc="T T T"
Si       1.35891180       1.34519562       1.38873442       0.00000000
Si      -1.35736425      -1.36868580       1.39335878       0.00000000
Si       1.35431802      -1.42592886      -1.42921476       0.00000000
Si      -1.30536657       1.53448542      -1.47505452       0.00000000
Si      -2.72013678      -2.69456148       0.02414671       0.00000000
Si       2.72066264       2.70010008      -0.00091107       0.00000000
Si      -2.71648782       2.71492398       0.02053350       0.00000000
Si       2.70518256      -2.72736954       0.02820855       0.00000000
Si       0.00013032       2.70503595       2.75077874       0.00000000
Si      -2.71195920      -0.01050705       2.75036462       0.00000000
