10
Lattice="16.28999089631971 0.0 0.0 0.0 16.28999089631971 0.0 0.0 0.0 34.51007289658418" Properties=species:S:1:pos:R:3:initial_magmoms:R:1 pbc="T T T"
Si       1.34485353       1.35337320      -1.38295743       0.00000000
Si      -1.36383138      -1.36418976      -1.38223272       0.00000000
Si       1.52604720      -1.27373139       1.43641357       0.00000000
Si      -1.37264427       1.44422253       1.43813907       0.00000000
Si      -0.29892150      -2.22060393       2.53065957       0.00000000
Si       0.32734755       2.46277107       2.90744076       0.00000000
Si       2.69957880       2.72508894      -0.02232803       0.00000000
Si       2.69775432      -2.73171571      -0.01915310       0.00000000
Si      -2.71427564       2.71596654      -0.02415706       0.00000000
Si      -2.73677213      -2.70923063      -0.02225901       0.00000000
