10
Lattice="16.28999089631971 0.0 0.0 0.0 16.28999089631971 0.0 0.0 0.0 34.51007289658418" Properties=species:S:1:pos:R:3:initial_magmoms:R:1 pbc="T T T"
Si       1.56743262      -1.66392576       0.49704886       0.00000000
Si       1.05882461       2.09639268       0.23090703       0.00000000
Si      -0.16895988       0.07475481      -2.36977352       0.00000000
Si      -1.67571972      -0.12953808       1.74558948       0.00000000
Si      -1.36355445       2.00466369       2.71142343       0.00000000
Si       1.83037113      -1.39168728       2.85812583       0.00000000
Si       0.86274188       2.62091439       2.51996144       0.00000000
Si       0.79880754      -3.70763658      -0.41198148       0.00000000
Si       1.34513765      -1.39101939      -3.34061143       0.00000000
Si       0.46558449       3.53740608      -1.52948729       0.00000000
