10
Lattice="16.28999089631971 0.0 0.0 0.0 16.28999089631971 0.0 0.0 0.0 34.51007289658418" Properties=species:S:1:pos:R:3:initial_magmoms:R:1 pbc="T T T"
Si      -0.39136725       0.53392104      -2.20847335       0.00000000
Si       1.42329381      -1.81363086       0.47454828       0.00000000
Si       0.98321131       1.96781571       0.90730483       0.00000000
Si      -2.13578190      -0.48861855       1.08724045       0.00000000
Si      -1.92410964      -1.15737192      -2.73744404       0.00000000
Si       2.30293100      -1.22088663       2.58756671       0.00000000
Si      -0.31974012       2.45179161       2.84635789       0.00000000
Si      -2.50794324       1.35889551       2.47171633       0.00000000
Si      -1.90612548       2.37900789      -2.39330940       0.00000000
Si       3.20811092       1.41146334       1.71466844       0.00000000
