10
Lattice="16.28999089631971 0.0 0.0 0.0 16.28999089631971 0.0 0.0 0.0 34.51007289658418" Properties=species:S:1:pos:R:3:initial_magmoms:R:1 pbc="T T T"
Si       1.34993927       1.35057132      -1.36035332       0.00000000
Si       1.34163137      -1.27174401       1.46229614       0.00000000
Si      -1.36430486      -1.36568844      -1.35610858       0.00000000
Si      -1.27808734       1.43747847       1.37008517       0.00000000
Si      -0.45728148      -2.20837014       2.83462446       0.00000000
Si       2.70640757       2.70979263       0.02408804       0.00000000
Si       2.70875333      -0.00514764      -2.71894663       0.00000000
Si      -0.00624722       2.71008585      -2.71860153       0.00000000
Si       2.71427564      -2.71596654       0.02415706       0.00000000
Si      -0.00611690      -2.72029968      -2.71818741       0.00000000
