10
Lattice="16.28999089631971 0.0 0.0 0.0 16.28999089631971 0.0 0.0 0.0 34.51007289658418" Properties=species:S:1:pos:R:3:initial_magmoms:R:1 pbc="T T T"
Si      -0.37216134       1.84751406       1.38447588       0.00000000
Si      -1.94989671      -0.98676675      -0.98312351       0.00000000
Si       2.13578190       0.48861855      -1.08724045       0.00000000
Si      -1.30942278      -1.51778817       2.00945365       0.00000000
Si      -0.64189116      -2.37324123      -2.44904320       0.00000000
Si       0.74714085       1.32019047       3.39210049       0.00000000
Si       3.55907571      -1.32501231      -0.61269218       0.00000000
Si       1.74441465       1.02253959      -3.29571380       0.00000000
Si       1.81604178       2.94041016       1.75911744       0.00000000
Si       0.21167226      -0.66875337      -3.82468450       0.00000000
