10
Lattice="16.28999089631971 0.0 0.0 0.0 16.28999089631971 0.0 0.0 0.0 34.51007289658418" Properties=species:S:1:pos:R:3:initial_magmoms:R:1 pbc="T T T"
Si       0.44103548      -1.69862346       1.55785458       0.00000000
Si       1.64968245       1.73442888       0.12271789       0.00000000
Si      -2.17810332       1.04925519       0.59747323       0.00000000
Si       0.44380348      -1.23227334      -2.17285893       0.00000000
Si       0.41166459       3.63313982      -0.44576686       0.00000000
Si      -1.61756442      -2.59437798       2.36114600       0.00000000
Si       1.66061793      -0.87645087       3.41360028       0.00000000
Si       2.57871419      -0.08977419      -2.95799804       0.00000000
Si      -1.92230145       3.43712388       0.27811683       0.00000000
Si       1.46962908      -3.62426436       0.73475437       0.00000000
