10
Lattice="16.28999089631971 0.0 0.0 0.0 16.28999089631971 0.0 0.0 0.0 34.51007289658418" Properties=species:S:1:pos:R:3:initial_magmoms:R:1 pbc="T T T"
Si      -1.34163137       1.27174401      -1.46229614       0.00000000
Si      -1.79891284      -0.93662613       1.37232833       0.00000000
Si       1.37264427      -1.44422253      -1.43813907       0.00000000
Si       1.69999182       1.01854854       1.46930168       0.00000000
Si      -0.22429701       1.68140493       2.58742867       0.00000000
Si       0.05426199      -1.96664283       2.44676554       0.00000000
Si      -2.61971870       2.70922248      -0.09221097       0.00000000
Si       0.00830790       2.62231533      -2.82264946       0.00000000
Si       2.80919421       2.65474872       0.02740101       0.00000000
Si       1.81688886      -0.67665402       3.35693471       0.00000000
