10
Lattice="16.28999089631971 0.0 0.0 0.0 16.28999089631971 0.0 0.0 0.0 34.51007289658418" Properties=species:S:1:pos:R:3:initial_magmoms:R:1 pbc="T T T"
Si       1.92428883      -0.66285639      -1.11812699       0.00000000
Si      -0.91271078       2.06180901      -1.04482755       0.00000000
Si       1.74736314      -0.41935347       2.03999508       0.00000000
Si       0.22429701      -1.68140493      -2.58742867       0.00000000
Si       2.04118587      -2.35805895       0.76950604       0.00000000
Si      -1.57461583      -2.61803106      -1.21510035       0.00000000
Si      -2.03020152       2.55140496       1.22048392       0.00000000
Si       0.27855900      -3.64804776      -0.14066314       0.00000000
Si      -3.22112663       0.28323423       1.74672832       0.00000000
Si      -2.39542169       1.02781755      -2.67963964       0.00000000
