10
Lattice="16.28999089631971 0.0 0.0 0.0 16.28999089631971 0.0 0.0 0.0 34.51007289658418" Properties=species:S:1:pos:R:3:initial_magmoms:R:1 pbc="T T T"
Si      -2.25252551       0.49762692       0.08406658       0.00000000
Si       0.26512887      -0.38320596       2.33947366       0.00000000
Si       0.58731249      -1.78626366      -1.51478599       0.00000000
Si       1.02200300       1.78961940      -1.27763263       0.00000000
Si       2.84177193      -1.18361511      -1.10842965       0.00000000
Si      -0.76917440      -0.53616906      -3.28649961       0.00000000
Si       3.18892812       1.12552497      -0.73723910       0.00000000
Si      -2.06519051       2.81950578       0.34875899       0.00000000
Si      -2.86719608       0.27792369      -2.22904136       0.00000000
Si       0.18326348      -3.71123667      -0.13086227       0.00000000
