10
Lattice="16.28999089631971 0.0 0.0 0.0 16.28999089631971 0.0 0.0 0.0 34.51007289658418" Properties=species:S:1:pos:R:3:initial_magmoms:R:1 pbc="T T T"
Si       1.35285192      -1.35095739      -1.36376982       0.00000000
Si      -1.35386516       1.35610992      -1.35955959       0.00000000
Si      -1.35764281      -1.35632495       1.35593603       0.00000000
Si       1.35715248       1.35773892       1.35572897       0.00000000
Si       0.00027693      -2.71467768       2.71311443       0.00000000
Si       2.71511946       0.00040725       2.71270031       0.00000000
Si      -2.71471593       0.00014661       2.71328698       0.00000000
Si      -2.71430705       2.71397916      -0.00213963       0.00000000
Si       0.00053757       2.71572219       2.71287286       0.00000000
Si      -2.71427957      -2.71515923      -0.00138040       0.00000000
