10
Lattice="16.28999089631971 0.0 0.0 0.0 16.28999089631971 0.0 0.0 0.0 34.51007289658418" Properties=species:S:1:pos:R:3:initial_magmoms:R:1 pbc="T T T"
Si      -2.25779889       0.38863053      -0.43696679       0.00000000
Si       0.04320108       0.51626268       2.27825276       0.00000000
Si       0.89073720       1.81612323      -1.19549861       0.00000000
Si       0.36530325      -2.45456091      -0.21610220       0.00000000
Si       1.18552104      -2.12201685      -2.51471591       0.00000000
Si      -1.88690328      -2.97975051      -0.55858035       0.00000000
Si       3.14778186       1.24160751      -1.17927887       0.00000000
Si      -2.76645644       1.94867496       1.25254380       0.00000000
Si       1.43819523      -1.03293261       3.18942272       0.00000000
Si       0.46815831      -2.92490208       2.26224007       0.00000000
