10
Lattice="16.28999089631971 0.0 0.0 0.0 16.28999089631971 0.0 0.0 0.0 34.51007289658418" Properties=species:S:1:pos:R:3:initial_magmoms:R:1 pbc="T T T"
Si       0.10111203      -0.49529745      -2.27576803       0.00000000
Si      -2.27944830      -0.16664670       0.55782113       0.00000000
Si       1.05746535      -1.91313018       0.88297522       0.00000000
Si       0.38581236       2.23260966       0.68343787       0.00000000
Si      -1.29388212       1.05389784      -3.18693799       0.00000000
Si       1.91060523      -0.96221772       2.92659386       0.00000000
Si      -2.73875299      -2.44278324       0.17496617       0.00000000
Si      -0.74686392      -3.59161920       0.84387528       0.00000000
Si      -0.88076772       2.24997480       2.96914480       0.00000000
Si       2.92666140      -2.43928089      -0.49887789       0.00000000
