10
Lattice="16.28999089631971 0.0 0.0 0.0 16.28999089631971 0.0 0.0 0.0 34.51007289658418" Properties=species:S:1:pos:R:3:initial_magmoms:R:1 pbc="T T T"
Si      -2.16692512       0.66409443      -0.54039353       0.00000000
Si       0.22473684      -0.08123823       2.31818093       0.00000000
Si      -0.34715619      -2.30914008      -0.37119055       0.00000000
Si       1.01038725      -2.36428173      -2.25599375       0.00000000
Si      -3.18892812      -1.12552497       0.73723910       0.00000000
Si       2.48178150      -0.65575395       2.33440068       0.00000000
Si       3.33529605       1.08774846       0.96265902       0.00000000
Si       2.85909048      -0.80091414      -2.35503771       0.00000000
Si      -0.48581667       1.97201853       3.25399110       0.00000000
Si      -2.60161563      -2.91178863      -0.77754689       0.00000000
