10
Lattice="16.28999089631971 0.0 0.0 0.0 16.28999089631971 0.0 0.0 0.0 34.51007289658418" Properties=species:S:1:pos:R:3:initial_magmoms:R:1 pbc="T T T"
Si       1.36647362      -1.28480761       1.36991262       0.00000000
Si      -1.34760779      -1.36557345      -1.36376982       0.00000000
Si       1.37294075       1.34504087      -1.35997371       0.00000000
Si      -1.37041647       1.34961835       1.49860075       0.00000000
Si       2.43785063       0.48862669       2.55291858       0.00000000
Si      -0.02405544      -2.57196198       2.76726076       0.00000000
Si      -2.69803518       2.69352706       0.01052558       0.00000000
Si      -2.69909403      -0.01192102      -2.72136234       0.00000000
Si      -2.71235409      -2.71104600       0.00762673       0.00000000
Si       0.01637960       2.70489749      -2.72008547       0.00000000
