10
Lattice="16.28999089631971 0.0 0.0 0.0 16.28999089631971 0.0 0.0 0.0 34.51007289658418" Properties=species:S:1:pos:R:3:initial_magmoms:R:1 pbc="T T T"
Si      -1.24804206      -1.44436914      -1.32932875       0.00000000
Si       1.02977235      -1.71269802       1.29982262       0.00000000
Si      -1.76264316       1.07378793       1.29102255       0.00000000
Si       1.58980626       1.31444010      -1.30724229       0.00000000
Si      -2.56275746      -0.07270227      -2.81060544       0.00000000
Si      -2.34533320      -3.00087864       0.17831365       0.00000000
Si      -2.60620941       2.80945485      -0.05262789       0.00000000
Si       1.91024685      -0.31038966       3.34154321       0.00000000
Si       0.16237872       2.65904928      -2.79676689       0.00000000
Si       0.14812497      -2.77360056      -2.80073555       0.00000000
