10
Lattice="16.28999089631971 0.0 0.0 0.0 16.28999089631971 0.0 0.0 0.0 34.51007289658418" Properties=species:S:1:pos:R:3:initial_magmoms:R:1 pbc="T T T"
Si      -1.38791193       1.30080537      -1.34872342       0.00000000
Si       1.34326200      -1.44081792      -1.34592811       0.00000000
Si       1.29981005       1.44133920       1.41204944       0.00000000
Si      -1.55126805      -0.99271260       1.57994104       0.00000000
Si       2.14337630      -0.29432772       2.75569988       0.00000000
Si      -0.02324699       2.64686436      -2.71998194       0.00000000
Si      -2.86181484       2.49168582       0.20854449       0.00000000
Si      -2.55826698      -2.81862612       0.30665668       0.00000000
Si       0.01173841      -1.43948214       3.53724994       0.00000000
Si       2.69772500      -0.07211583      -2.71549562       0.00000000
