10
Lattice="16.28999089631971 0.0 0.0 0.0 16.28999089631971 0.0 0.0 0.0 34.51007289658418" Properties=species:S:1:pos:R:3:initial_magmoms:R:1 pbc="T T T"
Si       0.95819409       2.11887844       0.23887886       0.00000000
Si      -1.18001502      -0.43021890       1.99816885       0.00000000
Si       1.84700907      -1.19926980       0.86409820       0.00000000
Si      -0.49322862      -0.70786566      -2.25074821       0.00000000
Si       0.89119332      -1.05971337       3.07619511       0.00000000
Si       3.01951440       1.71317599      -0.68078059       0.00000000
Si       1.67392782      -3.17933559      -0.35866339       0.00000000
Si      -2.58980375      -2.19427929       1.39721010       0.00000000
Si      -0.07832232       3.46757804      -1.29012529       0.00000000
Si       2.36292966       1.06468182      -2.82523772       0.00000000
