10
Lattice="16.28999089631971 0.0 0.0 0.0 16.28999089631971 0.0 0.0 0.0 34.51007289658418" Properties=species:S:1:pos:R:3:initial_magmoms:R:1 pbc="T T T"
Si      -0.68178537       1.84568795       1.22338277       0.00000000
Si       0.67821786      -1.75714596       1.36956752       0.00000000
Si      -2.13286599      -0.87890089      -0.81195345       0.00000000
Si       2.55091626      -0.12104285      -0.39127543       0.00000000
Si       2.51185284      -2.48899050       0.07971831       0.00000000
Si      -2.29690629       0.54967184      -2.69951745       0.00000000
Si       1.37178090       2.35672154       2.33812777       0.00000000
Si       1.34990343       2.36921597      -2.53614667       0.00000000
Si       3.31996716       1.68974378       1.06760421       0.00000000
Si      -1.55737287       3.54493043      -0.44010721       0.00000000
