10
Lattice="16.28999089631971 0.0 0.0 0.0 16.28999089631971 0.0 0.0 0.0 34.51007289658418" Properties=species:S:1:pos:R:3:initial_magmoms:R:1 pbc="T T T"
Si       1.18684053      -0.16853634       2.00748657       0.00000000
Si       1.05536394      -0.29815587      -2.10497758       0.00000000
Si      -0.85646304      -2.18745541       0.40721909       0.00000000
Si      -0.59030073       2.35535481       0.31718226       0.00000000
Si      -1.51304778      -2.83594958      -1.73723804       0.00000000
Si       1.62771309       3.24618975       0.44676765       0.00000000
Si      -2.91778335      -1.78175296       1.32687853       0.00000000
Si       2.06615844       1.99171314       2.34578901       0.00000000
Si      -0.47232855      -0.30059937       3.73268059       0.00000000
Si       0.50973039      -2.50634519      -2.83714370       0.00000000
