10
Lattice="16.28999089631971 0.0 0.0 0.0 16.28999089631971 0.0 0.0 0.0 34.51007289658418" Properties=species:S:1:pos:R:3:initial_magmoms:R:1 pbc="T T T"
Si       0.60792651       2.36424915      -0.06318798       0.00000000
Si       1.28075238      -1.10323373      -1.84383972       0.00000000
Si      -2.31865344      -0.99269794       0.54729555       0.00000000
Si       1.39545027       0.44577585       2.14741572       0.00000000
Si      -0.47175840      -0.77370821       3.33135034       0.00000000
Si       1.77008769       2.52302778      -2.17033970       0.00000000
Si       2.85982353       0.52927839      -2.51205863       0.00000000
Si      -0.15701931      -1.48805077      -3.73689082       0.00000000
Si      -2.61659754      -2.89987154      -0.98867963       0.00000000
Si      -1.25053443       3.86268480      -0.00207061       0.00000000
