10
Lattice="16.28999089631971 0.0 0.0 0.0 16.28999089631971 0.0 0.0 0.0 34.51007289658418" Properties=species:S:1:pos:R:3:initial_magmoms:R:1 pbc="T T T"
Si       0.69224355       1.79426205      -1.31062428       0.00000000
Si      -1.75208887      -1.24953748      -1.02595053       0.00000000
Si       1.87434369      -1.33360203      -0.77544177       0.00000000
Si      -0.88035395       0.94397292       2.25485491       0.00000000
Si      -2.07489707      -0.98252321       1.40728705       0.00000000
Si       1.71030339       0.09497070      -2.66300577       0.00000000
Si       1.47242052       1.33571484       2.76412034       0.00000000
Si       1.01465523      -3.21913925       0.49870534       0.00000000
Si      -0.83646381      -2.88131723       1.97463296       0.00000000
Si       3.32542431       1.39098681       1.25989445       0.00000000
