10
Lattice="16.28999089631971 0.0 0.0 0.0 16.28999089631971 0.0 0.0 0.0 34.51007289658418" Properties=species:S:1:pos:R:3:initial_magmoms:R:1 pbc="T T T"
Si       1.03651641      -1.34869960       1.52900414       0.00000000
Si       0.50668416      -1.05446799      -2.01708038       0.00000000
Si      -2.26858938      -0.26135676       0.55723446       0.00000000
Si      -0.14294475       2.49207678       0.21844888       0.00000000
Si      -2.39544450       1.96651251      -0.12392574       0.00000000
Si      -0.03976389       2.02196367       2.69703272       0.00000000
Si       1.19438280       0.09710469       3.31300336       0.00000000
Si      -1.44534654      -2.43275579      -2.13379351       0.00000000
Si       0.48062016       0.79415379      -3.44262327       0.00000000
Si       0.68084055       2.82699918      -2.08151072       0.00000000
