10
Lattice="16.28999089631971 0.0 0.0 0.0 16.28999089631971 0.0 0.0 0.0 34.51007289658418" Properties=species:S:1:pos:R:3:initial_magmoms:R:1 pbc="T T T"
Si      -0.20991294       1.39116600       1.84236341       0.00000000
Si      -2.05449480      -1.01735937      -0.36028536       0.00000000
Si       0.17324415       1.77021801      -1.50191372       0.00000000
Si       1.55782899      -1.86136056      -0.13369210       0.00000000
Si      -0.78801246      -1.03405662      -2.64647544       0.00000000
Si       1.22860809       0.21800907      -2.87917699       0.00000000
Si      -1.02182283      -0.50363793       2.99105323       0.00000000
Si      -1.88328690      -2.22573528       1.66890451       0.00000000
Si       2.84436432      -1.13653701      -1.90312805       0.00000000
Si      -3.55713979       0.94442904      -0.25803196       0.00000000
