10
Lattice="16.28999089631971 0.0 0.0 0.0 16.28999089631971 0.0 0.0 0.0 34.51007289658418" Properties=species:S:1:pos:R:3:initial_magmoms:R:1 pbc="T T T"
Si       1.26297999      -1.38390066      -1.50501963       0.00000000
Si      -1.58980626      -1.31444010       1.30724229       0.00000000
Si      -1.42742754       1.34460918      -1.48952460       0.00000000
Si       1.97939790       0.80329248       1.25889365       0.00000000
Si       2.60139897       2.65999410      -0.11184721       0.00000000
Si       3.47560182      -1.08975213       1.07840587       0.00000000
Si       2.55086739      -2.83656141      -0.12665204       0.00000000
Si       2.63153547      -0.01800045      -2.87251654       0.00000000
Si      -0.08607636       2.69907381      -2.87734796       0.00000000
Si      -2.80554525       2.78236786      -0.14463180       0.00000000
