10
Lattice="16.28999089631971 0.0 0.0 0.0 16.28999089631971 0.0 0.0 0.0 34.51007289658418" Properties=species:S:1:pos:R:3:initial_magmoms:R:1 pbc="T T T"
Si      -1.90109187      -1.12490595      -0.87379553       0.00000000
Si       1.24571259      -1.59498648       1.30568934       0.00000000
Si      -0.91064358       1.42504920       1.74879892       0.00000000
Si       1.06264557       1.40160789      -1.76011823       0.00000000
Si       2.99714823      -0.09857079       1.60168240       0.00000000
Si      -3.21048207      -1.50796530       1.05863159       0.00000000
Si      -3.25857015       0.56907486      -1.91258382       0.00000000
Si      -3.03740082       0.47210049       2.28139317       0.00000000
Si      -1.86489549       3.38454628       0.73651439       0.00000000
Si      -2.52148023       2.73605211      -1.40794274       0.00000000
