10
Lattice="16.28999089631971 0.0 0.0 0.0 16.28999089631971 0.0 0.0 0.0 34.51007289658418" Properties=species:S:1:pos:R:3:initial_magmoms:R:1 pbc="T T T"
Si       2.28266883       0.48417138      -0.20844096       0.00000000
Si      -0.54221265       0.29172132       2.31293540       0.00000000
Si      -0.11948715      -2.10831696      -1.19439429       0.00000000
Si      -2.79751428       0.58414311      -1.17127253       0.00000000
Si       1.48279725       1.95475113      -1.90889124       0.00000000
Si      -1.59060447      -1.73193651       2.19021751       0.00000000
Si       0.06592563       3.20782584      -0.44576686       0.00000000
Si      -2.15883225       2.51374248       0.06115188       0.00000000
Si      -3.19336128      -0.97699275       0.61476278       0.00000000
Si      -0.53524053      -3.28414545       0.81295424       0.00000000
