10
Lattice="16.28999089631971 0.0 0.0 0.0 16.28999089631971 0.0 0.0 0.0 34.51007289658418" Properties=species:S:1:pos:R:3:initial_magmoms:R:1 pbc="T T T"
Si      -1.35348723       1.35611969       1.35686780       0.00000000
Si      -1.35627282      -1.35668474      -1.35697133       0.00000000
Si       1.35803214       1.35818852      -1.35686780       0.00000000
Si       1.35830907      -1.35599330       1.35890390       0.00000000
Si       0.01057221       2.70827114       2.70821399       0.00000000
Si      -2.71454931      -2.71343900       0.00131138       0.00000000
Si      -2.71428867       0.00091224      -2.71370110       0.00000000
Si       0.00060273      -2.71457930      -2.71366659       0.00000000
Si       2.71500543      -2.71356932       0.00058667       0.00000000
Si       2.71565703       0.00138139      -2.71411522       0.00000000
