10
Lattice="16.28999089631971 0.0 0.0 0.0 16.28999089631971 0.0 0.0 0.0 34.51007289658418" Properties=species:S:1:pos:R:3:initial_magmoms:R:1 pbc="T T T"
Si      -1.08973584       1.99374939       0.34171893       0.00000000
Si       1.05834501      -0.32172750      -2.06632628       0.00000000
Si      -1.57907115      -1.63251212       0.66821891       0.00000000
Si       1.94233815       0.51531786       1.42074599       0.00000000
Si       3.29362623      -0.68059620      -1.54273916       0.00000000
Si      -0.19702755      -3.57688394       0.94940715       0.00000000
Si      -3.09394341       1.85624550      -0.91565628       0.00000000
Si       2.03002722      -1.36307878       2.81702431       0.00000000
Si      -2.25189702       1.83497076       2.44887065       0.00000000
Si       0.49013352       3.77535411      -0.08831133       0.00000000
