10
Lattice="16.28999089631971 0.0 0.0 0.0 16.28999089631971 0.0 0.0 0.0 34.51007289658418" Properties=species:S:1:pos:R:3:initial_magmoms:R:1 pbc="T T T"
Si       0.14203251      -1.91380851      -1.33257270       0.00000000
Si      -0.08768907       1.87839664      -1.39627833       0.00000000
Si      -1.57452624      -0.39728052       1.77953710       0.00000000
Si       1.82850363       1.11051862       1.71829273       0.00000000
Si       0.73376676       3.00338404       0.61566004       0.00000000
Si       0.26508717       0.28598724       3.18129011       0.00000000
Si      -2.22705477      -2.21380515      -1.86761717       0.00000000
Si      -2.03002722       1.36307878      -2.81702431       0.00000000
Si       3.59305272      -0.63379177       1.27373299       0.00000000
Si       1.65275082      -1.37281761      -3.24636437       0.00000000
