10
Lattice="16.28999089631971 0.0 0.0 0.0 16.28999089631971 0.0 0.0 0.0 34.51007289658418" Properties=species:S:1:pos:R:3:initial_magmoms:R:1 pbc="T T T"
Si      -1.35698958       1.35705474       1.35752350       0.00000000
Si       1.35725022      -1.35780408       1.35717840       0.00000000
Si      -1.35791811      -1.35847197      -1.35704035       0.00000000
Si       1.35887922       1.35676152      -1.35779958       0.00000000
Si       2.71378368       0.00014661       2.71363208       0.00000000
Si       0.00083079       2.71394658       2.71359757       0.00000000
Si       2.71352304      -0.00141723      -2.71480542       0.00000000
Si       2.71487511      -2.71461121      -0.00006902       0.00000000
Si       2.71471221       2.71495656       0.00000000       0.00000000
Si      -2.71482624       2.71500543      -0.00010353       0.00000000
