10
Lattice="16.28999089631971 0.0 0.0 0.0 16.28999089631971 0.0 0.0 0.0 34.51007289658418" Properties=species:S:1:pos:R:3:initial_magmoms:R:1 pbc="T T T"
Si      -1.61497431       0.22478571      -1.67470575       0.00000000
Si      -1.47530385      -1.12065426       1.46260815       0.00000000
Si       1.20104541       1.60640577       1.41715836       0.00000000
Si       2.72251512      -2.24495748      -0.18010817       0.00000000
Si      -0.32843898       0.94960926      -3.44414171       0.00000000
Si       2.02255011       1.27819485      -2.83748880       0.00000000
Si      -0.10533114      -2.46399282       2.81034113       0.00000000
Si      -2.43654417      -2.14312869      -1.94409153       0.00000000
Si       2.62008360       0.26023275       2.79377283       0.00000000
Si      -3.32604333      -1.93578957       0.21268643       0.00000000
