10
Lattice="16.28999089631971 0.0 0.0 0.0 16.28999089631971 0.0 0.0 0.0 34.51007289658418" Properties=species:S:1:pos:R:3:initial_magmoms:R:1 pbc="T T T"
Si       1.36120869       1.34750880       1.37392269       0.00000000
Si      -1.35365013      -1.36682874       1.37064423       0.00000000
Si       1.41087690      -1.18006389      -1.49586755       0.00000000
Si      -1.41903819       1.34617302      -1.37661448       0.00000000
Si       2.73487923       2.68289784       0.00550091       0.00000000
Si      -2.62008360      -0.26023275      -2.79377283       0.00000000
Si       2.71647153      -2.71492398      -0.02014354       0.00000000
Si       0.00562005       2.70514998       2.72941009       0.00000000
Si      -2.73271266       2.70190827       0.01201296       0.00000000
Si      -2.71293660      -0.00840564       2.72996225       0.00000000
