10
Lattice="16.28999089631971 0.0 0.0 0.0 16.28999089631971 0.0 0.0 0.0 34.51007289658418" Properties=species:S:1:pos:R:3:initial_magmoms:R:1 pbc="T T T"
Si       1.66325787       0.98381826       1.29265108       0.00000000
Si       1.47883878      -1.07502597      -1.50554250       0.00000000
Si      -1.13215500      -1.71341478       1.20125800       0.00000000
Si      -1.72563228       1.80193464      -0.13707930       0.00000000
Si       0.31102497       2.37648294       2.59400940       0.00000000
Si      -2.44582947      -0.35767953       2.58988544       0.00000000
Si      -0.31065030      -2.04162570      -3.05338915       0.00000000
Si       3.53507661       1.76329476      -0.12365488       0.00000000
Si       2.41598619       2.29022739      -2.13055478       0.00000000
Si      -0.91025262       3.70716417       1.07493036       0.00000000
