10
Lattice="16.28999089631971 0.0 0.0 0.0 16.28999089631971 0.0 0.0 0.0 34.51007289658418" Properties=species:S:1:pos:R:3:initial_magmoms:R:1 pbc="T T T"
Si      -1.35653346      -1.35741312      -1.35600505       0.00000000
Si       1.35469269      -1.35786924       1.35969763       0.00000000
Si      -1.35224919       1.35883035       1.36207883       0.00000000
Si       1.35829278       1.35865116      -1.35652270       0.00000000
Si      -0.01757691      -2.69050527       2.71183755       0.00000000
Si       0.00019548      -2.71396287      -2.71408071       0.00000000
Si      -2.71453302       0.00091224      -2.71401169       0.00000000
Si      -2.71368594      -2.71497285      -0.00048314       0.00000000
Si       2.71549413       0.00089595      -2.71397718       0.00000000
Si       2.71639008      -2.71313208       0.00151844       0.00000000
