10
Lattice="16.28999089631971 0.0 0.0 0.0 16.28999089631971 0.0 0.0 0.0 34.51007289658418" Properties=species:S:1:pos:R:3:initial_magmoms:R:1 pbc="T T T"
Si      -1.47883878       1.07502597       1.50554250       0.00000000
Si       1.41938028      -1.70178372       0.97960348       0.00000000
Si      -1.78948908      -0.96659973      -1.54784665       0.00000000
Si       1.30968342       1.51786962      -2.01021287       0.00000000
Si      -0.64096263       0.53118432      -2.99261166       0.00000000
Si      -0.78146388      -3.07859823      -1.18228125       0.00000000
Si       0.18441909       2.05884423       2.79819358       0.00000000
Si       0.93714741       3.36525336      -0.62501228       0.00000000
Si       1.66733037      -2.93404077      -1.14228405       0.00000000
Si       2.05623783       2.83832073       1.38188762       0.00000000
