10
Lattice="16.28999089631971 0.0 0.0 0.0 16.28999089631971 0.0 0.0 0.0 34.51007289658418" Properties=species:S:1:pos:R:3:initial_magmoms:R:1 pbc="T T T"
Si      -1.34149779      -1.34962650       1.37629699       0.00000000
Si       1.35669636      -1.35757602      -1.35831723       0.00000000
Si      -1.35830907       1.35599330      -1.35890390       0.00000000
Si       1.35552348       1.34014965       1.38747826       0.00000000
Si      -2.71179630       2.71211300      -0.00203610       0.00000000
Si       2.71570590      -2.71365336       0.00272630       0.00000000
Si      -0.00027693       2.71418183      -2.71577170       0.00000000
Si      -2.71458189      -0.00069144      -2.71587523       0.00000000
Si       2.71538010      -0.00087091      -2.71521954       0.00000000
Si      -2.71474479      -2.71625976       0.00376160       0.00000000
