10
Lattice="16.28999089631971 0.0 0.0 0.0 16.28999089631971 0.0 0.0 0.0 34.51007289658418" Properties=species:S:1:pos:R:3:initial_magmoms:R:1 pbc="T T T"
Si      -0.92473443      -1.74680928      -1.20505791       0.00000000
Si       0.70680681      -1.14414444       1.93056358       0.00000000
Si       1.82350260       0.98222184      -1.12499450       0.00000000
Si      -1.49620392       1.89304461       0.18048778       0.00000000
Si      -2.21262183      -0.29414853      -2.58342550       0.00000000
Si       0.52918065       2.43838494      -2.57838703       0.00000000
Si      -2.21561919      -2.97659025       0.40338847       0.00000000
Si      -3.47560182       1.08975213      -1.07840587       0.00000000
Si      -0.40122270       2.60625339       2.74006681       0.00000000
Si       2.97201276      -0.27777708       2.40407655       0.00000000
