10
Lattice="16.28999089631971 0.0 0.0 0.0 16.28999089631971 0.0 0.0 0.0 34.51007289658418" Properties=species:S:1:pos:R:3:initial_magmoms:R:1 pbc="T T T"
Si       1.96991712      -1.04443335       0.64036927       0.00000000
Si       0.87493590       1.92555945      -0.98170859       0.00000000
Si      -1.18462509       0.56689200       1.95444456       0.00000000
Si      -0.21028761      -1.30823361      -1.96900782       0.00000000
Si       2.04817428      -1.94743692      -1.51564874       0.00000000
Si      -1.09139742       3.21776370      -0.56113410       0.00000000
Si      -2.93606073      -0.92952369       1.65845150       0.00000000
Si      -1.04901084       2.93203710       1.78254979       0.00000000
Si       2.56376907       2.48099958       0.56406746       0.00000000
Si      -2.13004782      -2.99683872       0.73713557       0.00000000
