10
Lattice="16.28999089631971 0.0 0.0 0.0 16.28999089631971 0.0 0.0 0.0 34.51007289658418" Properties=species:S:1:pos:R:3:initial_magmoms:R:1 pbc="T T T"
Si      -1.34293131      -1.35078635       1.36446002       0.00000000
Si       1.37198520       1.35840681       1.36483964       0.00000000
Si       1.09512036      -1.43986984      -1.52670577       0.00000000
Si      -1.35117405       1.30157100      -1.45782018       0.00000000
Si       2.02604336       0.45107010      -2.79409033       0.00000000
Si       0.33623930       2.26395162      -2.87877809       0.00000000
Si      -2.50957224      -0.54726255      -2.72006545       0.00000000
Si      -2.70386307       0.00215028       2.72260470       0.00000000
Si       2.71760273      -2.71110302      -0.03124544       0.00000000
Si       2.71688597       2.71533123      -0.00375125       0.00000000
