10
Lattice="16.28999089631971 0.0 0.0 0.0 16.28999089631971 0.0 0.0 0.0 34.51007289658418" Properties=species:S:1:pos:R:3:initial_magmoms:R:1 pbc="T T T"
Si       1.35790182       1.35707598       1.35621211       0.00000000
Si       1.35703845      -1.35707978      -1.35766154       0.00000000
Si      -1.35868374      -1.35670511       1.35690231       0.00000000
Si      -1.35803214       1.35824560      -1.35779958       0.00000000
Si       2.70925783       0.00315151       2.71408071       0.00000000
Si      -0.00053757      -2.71320599      -2.71404620       0.00000000
Si      -2.71425609      -0.00138374      -2.71421875       0.00000000
Si       2.71417763      -2.71473725      -0.00034510       0.00000000
Si       2.71498914      -0.00010649      -2.71452934       0.00000000
Si       2.71454220       2.71516677       0.00010353       0.00000000
