10
Lattice="16.28999089631971 0.0 0.0 0.0 16.28999089631971 0.0 0.0 0.0 34.51007289658418" Properties=species:S:1:pos:R:3:initial_magmoms:R:1 pbc="T T T"
Si      -1.35748480       1.35653346      -1.35700584       0.00000000
Si       1.35654975      -1.35788553      -1.35683329       0.00000000
Si      -1.35741475      -1.35713619       1.35848978       0.00000000
Si       1.35839052       1.35868374       1.35700584       0.00000000
Si       2.71018359       0.00096111       2.71708309       0.00000000
Si      -0.00060273      -2.71562445      -2.71259678       0.00000000
Si       2.71435383       2.71448415       0.00010353       0.00000000
Si       0.00013032       2.71503801      -2.71387365       0.00000000
Si       2.71443528       0.00037467      -2.71463287       0.00000000
Si      -2.71493169      -0.00161271      -2.71470189       0.00000000
