10
Lattice="16.28999089631971 0.0 0.0 0.0 16.28999089631971 0.0 0.0 0.0 34.51007289658418" Properties=species:S:1:pos:R:3:initial_magmoms:R:1 pbc="T T T"
Si       0.58751514      -2.29094415       0.17890032       0.00000000
Si       2.06136918       1.18708488      -0.46567918       0.00000000
Si      -0.83655666       0.43362351       2.32463432       0.00000000
Si      -1.57068180       0.36440730      -2.19756816       0.00000000
Si       0.61377462       2.58704748      -1.75880685       0.00000000
Si       1.33193556      -2.70273580      -2.07464321       0.00000000
Si      -2.20760451      -1.43845587       2.70203669       0.00000000
Si      -1.76941980       2.61109152       2.13607118       0.00000000
Si       0.00405621       1.41211494      -3.68184722       0.00000000
Si       0.68375646       0.06121782       4.11788224       0.00000000
