10
Lattice="16.28999089631971 0.0 0.0 0.0 16.28999089631971 0.0 0.0 0.0 34.51007289658418" Properties=species:S:1:pos:R:3:initial_magmoms:R:1 pbc="T T T"
Si      -1.51485597       0.21590766       1.78513805       0.00000000
Si      -0.83613312      -1.36964691      -1.78517256       0.00000000
Si       1.77700998       1.76062320       0.23977612       0.00000000
Si       0.61146144      -2.76960951      -0.49204489       0.00000000
Si      -2.31524883       1.83528027       0.13538309       0.00000000
Si      -2.03985009       0.92576070      -2.04534414       0.00000000
Si       1.95323357      -1.77513759       2.55985511       0.00000000
Si       2.91254841       1.28573712      -2.01138621       0.00000000
Si       1.42253714       0.23348457      -3.63846804       0.00000000
Si      -3.21932754      -1.34560287       2.10970547       0.00000000
