10
Lattice="16.28999089631971 0.0 0.0 0.0 16.28999089631971 0.0 0.0 0.0 34.51007289658418" Properties=species:S:1:pos:R:3:initial_magmoms:R:1 pbc="T T T"
Si      -1.73444517       0.07936488      -1.51140400       0.00000000
Si      -0.64360161       1.43518158       1.78396471       0.00000000
Si       0.78543864      -2.21413680       0.46219366       0.00000000
Si       1.35521397       1.26205146      -1.58760228       0.00000000
Si       2.72688084      -1.51713657       1.53300731       0.00000000
Si      -2.27103777       2.42359362      -1.39572617       0.00000000
Si      -3.15802827      -1.64457324      -0.78513911       0.00000000
Si      -2.63981079       2.53840554       0.94360945       0.00000000
Si       1.19325879       2.76506460       2.29526623       0.00000000
Si      -0.97840998      -0.60875730      -3.61593295       0.00000000
