10
Lattice="16.28999089631971 0.0 0.0 0.0 16.28999089631971 0.0 0.0 0.0 34.51007289658418" Properties=species:S:1:pos:R:3:initial_magmoms:R:1 pbc="T T T"
Si       1.26875877      -1.41245703       1.50721102       0.00000000
Si       1.13187807       1.72981881      -1.27694730       0.00000000
Si      -1.43338968       1.28498778       1.53374928       0.00000000
Si      -1.55693304      -1.11513195      -1.57556313       0.00000000
Si      -0.92007549       3.42497250      -1.17327899       0.00000000
Si      -2.75739201      -2.57797395       0.03238082       0.00000000
Si      -2.79189423       2.64549600       0.24302697       0.00000000
Si       2.61006592      -2.84627025       0.04160537       0.00000000
Si       2.75049224       2.76493428       0.16506522       0.00000000
Si       2.62245772      -0.04799034       2.89865104       0.00000000
