10
Lattice="16.28999089631971 0.0 0.0 0.0 16.28999089631971 0.0 0.0 0.0 34.51007289658418" Properties=species:S:1:pos:R:3:initial_magmoms:R:1 pbc="T T T"
Si       1.18793196      -1.30792410      -1.64689062       0.00000000
Si       1.00699893       1.82591352       1.27328436       0.00000000
Si      -0.83344527      -1.91034459       1.30237637       0.00000000
Si      -1.53068985       1.37010303      -1.63187873       0.00000000
Si      -1.05770970       3.13698159       1.40752862       0.00000000
Si       2.62894196      -2.60262072      -0.29074753       0.00000000
Si      -1.10884401      -1.00082502       3.48310360       0.00000000
Si       2.55826698       2.81862612      -0.30665668       0.00000000
Si      -2.82049947      -2.70835911      -0.04168819       0.00000000
Si       2.53903889       0.03433932      -3.02598292       0.00000000
