10
Lattice="16.28999089631971 0.0 0.0 0.0 16.28999089631971 0.0 0.0 0.0 34.51007289658418" Properties=species:S:1:pos:R:3:initial_magmoms:R:1 pbc="T T T"
Si      -0.07825716       0.90300357       2.15601801       0.00000000
Si      -0.18319734      -2.32575588      -0.27842742       0.00000000
Si       2.05998341       0.89725320      -0.79990943       0.00000000
Si      -2.25846189       0.63920331      -0.45335908       0.00000000
Si      -2.04817428       1.94743692       1.51564874       0.00000000
Si       2.06440956      -2.82051576      -0.35017391       0.00000000
Si       3.08080945      -1.03241133      -1.62411396       0.00000000
Si      -0.34515252      -0.82274274       3.60444109       0.00000000
Si      -0.81234972      -2.63505411      -2.63132551       0.00000000
Si       3.27905875       1.71774792       1.05476646       0.00000000
