10
Lattice="16.28999089631971 0.0 0.0 0.0 16.28999089631971 0.0 0.0 0.0 34.51007289658418" Properties=species:S:1:pos:R:3:initial_magmoms:R:1 pbc="T T T"
Si       0.26689536       1.72574631      -1.44842308       0.00000000
Si      -0.33858765       0.96886404       2.03778643       0.00000000
Si       2.16800352      -0.81969651       0.07885556       0.00000000
Si      -1.83686040      -1.32988302      -0.51130153       0.00000000
Si      -2.34735642      -1.96687089       1.72805836       0.00000000
Si      -1.19215107      -0.73588446       3.41339322       0.00000000
Si       0.34515252       0.82274274      -3.60444109       0.00000000
Si      -1.19325879      -2.76506460      -2.29526623       0.00000000
Si      -1.84671585       2.77228107       1.87424311       0.00000000
Si      -1.70302176       2.77017966      -2.08879235       0.00000000
