10
Lattice="16.28999089631971 0.0 0.0 0.0 16.28999089631971 0.0 0.0 0.0 34.51007289658418" Properties=species:S:1:pos:R:3:initial_magmoms:R:1 pbc="T T T"
Si       1.35433594       1.34920296      -1.36142314       0.00000000
Si      -1.27245344       1.42977330       1.37256990       0.00000000
Si       1.34441533      -1.26964260       1.46184750       0.00000000
Si      -1.36086451      -1.36576989      -1.35959410       0.00000000
Si      -0.44901430      -2.22597963       2.81712785       0.00000000
Si       2.71101601       2.70930393       0.02060253       0.00000000
Si      -0.00251029       2.70826137      -2.71932624       0.00000000
Si       2.71264501      -0.00589698      -2.72098273       0.00000000
Si       2.71736911      -2.71678104       0.02522688       0.00000000
Si      -2.71763368      -0.00661374      -2.71953330       0.00000000
