10
Lattice="16.28999089631971 0.0 0.0 0.0 16.28999089631971 0.0 0.0 0.0 34.51007289658418" Properties=species:S:1:pos:R:3:initial_magmoms:R:1 pbc="T T T"
Si       0.85356342       1.70474850      -1.37560678       0.00000000
Si      -1.15520535      -1.23098643      -1.68533486       0.00000000
Si       1.53134145      -1.61666847       0.90513070       0.00000000
Si      -1.30831506       1.38671883       1.46623029       0.00000000
Si       0.64233099       2.37340413       2.44862908       0.00000000
Si      -0.95053779      -3.38968836      -0.76833269       0.00000000
Si      -2.34734013       2.80323207      -0.13769527       0.00000000
Si       1.19215107       0.73588446      -3.41339322       0.00000000
Si      -3.36745251      -0.51080553      -1.51447540       0.00000000
Si      -2.45684151      -0.11106522       2.91099530       0.00000000
