10
Lattice="16.28999089631971 0.0 0.0 0.0 16.28999089631971 0.0 0.0 0.0 34.51007289658418" Properties=species:S:1:pos:R:3:initial_magmoms:R:1 pbc="T T T"
Si      -1.35900954       1.35607734      -1.36104353       0.00000000
Si       1.35723393      -1.36003581      -1.36049136       0.00000000
Si       1.34426709       1.36987497       1.36739338       0.00000000
Si      -1.35677781      -1.37945349       1.39089476       0.00000000
Si       2.70893203       2.71593396      -0.00386513       0.00000000
Si      -2.71096551      -2.71660185       0.00048314       0.00000000
Si       2.71295093      -2.71521720      -0.00320944       0.00000000
Si      -2.71570590       2.71365336      -0.00272630       0.00000000
Si      -0.00032580       2.71278245      -2.71794584       0.00000000
Si       2.71385183      -0.00195480      -2.71829094       0.00000000
