10
Lattice="16.28999089631971 0.0 0.0 0.0 16.28999089631971 0.0 0.0 0.0 34.51007289658418" Properties=species:S:1:pos:R:3:initial_magmoms:R:1 pbc="T T T"
Si       1.55126805       0.99271260      -1.57994104       0.00000000
Si      -1.00699893      -1.82591352      -1.27328436       0.00000000
Si      -2.06470863       1.31106807       0.13424426       0.00000000
Si       1.56300646      -0.44676954       1.95730890       0.00000000
Si      -2.79528255      -0.42849216       2.05997642       0.00000000
Si       0.16335612       2.29351797      -2.92866446       0.00000000
Si       2.85107810       2.43405180      -0.16789160       0.00000000
Si      -2.53768878      -0.45581049      -2.90516309       0.00000000
Si       3.69464435       0.69838488       1.17575884       0.00000000
Si      -1.31054679       3.48439842      -1.37139655       0.00000000
