10
Lattice="16.28999089631971 0.0 0.0 0.0 16.28999089631971 0.0 0.0 0.0 34.51007289658418" Properties=species:S:1:pos:R:3:initial_magmoms:R:1 pbc="T T T"
Si      -0.61403526       0.22885821       2.29505917       0.00000000
Si       0.25692588       2.38731646      -0.31928737       0.00000000
Si      -1.93187997      -1.39781232      -0.45677558       0.00000000
Si       2.17784268      -1.04894568      -0.59681753       0.00000000
Si      -1.69925877      -3.00493485       1.30775994       0.00000000
Si       2.58981678       2.58362562      -1.04275695       0.00000000
Si      -1.73297907      -2.26157328      -2.66980426       0.00000000
Si       2.61918653      -2.74688496       0.96120960       0.00000000
Si       3.82825004       0.68483160      -0.47541103       0.00000000
Si      -1.48897116      -1.69670124       3.27676776       0.00000000
