10
Lattice="16.28999089631971 0.0 0.0 0.0 16.28999089631971 0.0 0.0 0.0 34.51007289658418" Properties=species:S:1:pos:R:3:initial_magmoms:R:1 pbc="T T T"
Si      -1.52616123      -1.73289762      -0.50767797       0.00000000
Si       0.00560376       1.44723618       1.89653663       0.00000000
Si       1.51466049      -1.84508685       0.18466350       0.00000000
Si      -0.11938941       1.37142252      -1.99623628       0.00000000
Si      -0.01803303      -3.53631465      -0.34413464       0.00000000
Si      -0.38354805       3.50253638       0.78313752       0.00000000
Si       2.40023376       1.62746874       2.22990412       0.00000000
Si      -2.56709223      -1.16810703      -2.51626886       0.00000000
Si      -2.43147798       1.19703807      -2.68816363       0.00000000
Si       3.25153680      -1.59244524      -1.30344618       0.00000000
