10
Lattice="16.28999089631971 0.0 0.0 0.0 16.28999089631971 0.0 0.0 0.0 34.51007289658418" Properties=species:S:1:pos:R:3:initial_magmoms:R:1 pbc="T T T"
Si      -0.87083082       1.69920990      -1.37315657       0.00000000
Si       2.05379433       1.04115906       0.60061364       0.00000000
Si      -0.20022039      -2.03284539      -1.36111255       0.00000000
Si      -0.82378530      -0.33492240       2.29995960       0.00000000
Si      -1.18881162       2.12051817       2.51454336       0.00000000
Si      -0.68084055      -2.82699918       2.08151072       0.00000000
Si      -3.52421607      -0.81691092      -0.38737578       0.00000000
Si       0.49345668       1.65558528      -3.25554406       0.00000000
Si       2.68315848      -0.03859101       2.60081859       0.00000000
Si      -3.07628505      -0.86048667       1.95758498       0.00000000
