10
Lattice="16.28999089631971 0.0 0.0 0.0 16.28999089631971 0.0 0.0 0.0 34.51007289658418" Properties=species:S:1:pos:R:3:initial_magmoms:R:1 pbc="T T T"
Si      -1.36249008      -1.34346888      -1.37339814       0.00000000
Si       1.35446300       1.36870209      -1.36956752       0.00000000
Si      -1.34326200       1.44081792       1.34592811       0.00000000
Si       1.31471540      -1.37166687       1.48127669       0.00000000
Si       2.56275746       0.07270227       2.81060544       0.00000000
Si      -2.71359702      -2.68573230       0.00569417       0.00000000
Si       2.71088243      -2.70089829       0.00986989       0.00000000
Si      -0.00264387      -2.70194085      -2.73005888       0.00000000
Si       2.71171322       0.01066995      -2.73140478       0.00000000
Si      -2.71820709       0.01171251      -2.73068006       0.00000000
