10
Lattice="16.28999089631971 0.0 0.0 0.0 16.28999089631971 0.0 0.0 0.0 34.61538196595647" Properties=species:S:1:pos:R:3:initial_magmoms:R:1 pbc="T T T"
Si      -1.54668730      -1.60707366       0.61418107       0.00000000
Si      -0.88506176       2.03374853      -0.72000035       0.00000000
Si       1.10270920       0.16992099       2.13005872       0.00000000
Si       0.95873818      -0.61483347      -2.16152412       0.00000000
Si       1.18386598       3.09456962      -1.12963901       0.00000000
Si       2.72511175      -1.50208461       1.78888932       0.00000000
Si       2.25416785       1.34262573      -2.45561657       0.00000000
Si      -0.15357235      -3.60940788       0.44601945       0.00000000
Si      -2.18365888      -0.99075780       2.82198598       0.00000000
Si      -3.40962799      -1.37547873      -0.83918117       0.00000000
