10
Lattice="16.28999089631971 0.0 0.0 0.0 16.28999089631971 0.0 0.0 0.0 34.61538196595647" Properties=species:S:1:pos:R:3:initial_magmoms:R:1 pbc="T T T"
Si       0.78918534       1.74693960       1.42562288       0.00000000
Si       0.06188571       0.19350891      -2.43425887       0.00000000
Si      -1.80896052      -0.97365330       1.35088823       0.00000000
Si       1.63784547      -1.92770973      -0.03032309       0.00000000
Si      -2.63887249       1.07456985      -1.12119285       0.00000000
Si       2.13682446       0.51264630       2.87056666       0.00000000
Si       3.30771708      -0.86762169       1.33731553       0.00000000
Si      -0.57401073      -2.22068538       2.88198628       0.00000000
Si       0.51976503       2.42605341      -3.05456686       0.00000000
Si      -2.63650392      -2.92698720       0.12780006       0.00000000
