10
Lattice="16.28999089631971 0.0 0.0 0.0 16.28999089631971 0.0 0.0 0.0 34.61538196595647" Properties=species:S:1:pos:R:3:initial_magmoms:R:1 pbc="T T T"
Si      -0.76051494       1.25533998       1.77892009       0.00000000
Si      -0.07286517       1.08517464      -2.06518946       0.00000000
Si      -1.90213443      -1.41488424      -0.21572318       0.00000000
Si       2.12379246      -0.99544932       0.73097343       0.00000000
Si       2.28076290       1.05094935      -2.01717790       0.00000000
Si       0.18735129      -0.26140563       3.39075164       0.00000000
Si       2.40810183       0.15947910       2.77785134       0.00000000
Si       1.39690008      -3.04924642       1.54834690       0.00000000
Si      -1.44397818      -2.40013113      -2.43180117       0.00000000
Si      -2.40935616      -2.03183867       2.13293180       0.00000000
