10
Lattice="16.28999089631971 0.0 0.0 0.0 16.28999089631971 0.0 0.0 0.0 34.61538196595647" Properties=species:S:1:pos:R:3:initial_magmoms:R:1 pbc="T T T"
Si      -1.36896273      -1.37107880      -1.34833911       0.00000000
Si      -1.63559745       1.58804694       0.62404645       0.00000000
Si       1.75663215       0.53980173      -1.59888539       0.00000000
Si       1.17450900      -1.04666508       1.96068556       0.00000000
Si      -1.16747172      -0.16356789      -3.39854010       0.00000000
Si      -0.56337336      -3.49908290      -0.69033495       0.00000000
Si       2.89587330      -2.07492083       0.77244268       0.00000000
Si      -1.34770428       3.28101777      -0.92862737       0.00000000
Si       3.76623171      -0.27588744      -0.54851565       0.00000000
Si       1.13199210      -0.49272363      -3.66275946       0.00000000
