10
Lattice="16.28999089631971 0.0 0.0 0.0 16.28999089631971 0.0 0.0 0.0 34.61538196595647" Properties=species:S:1:pos:R:3:initial_magmoms:R:1 pbc="T T T"
Si       1.35842310       1.35632169      -1.35619681       0.00000000
Si      -1.35733167       1.35676152       1.35761604       0.00000000
Si       1.35772263      -1.35746199       1.35751219       0.00000000
Si      -1.35729909      -1.35824391      -1.35758142       0.00000000
Si       2.71551042       0.00166158      -2.71159746       0.00000000
Si      -2.71581993      -0.00100998       2.71377823       0.00000000
Si       2.71523349       2.71443528       0.00020769       0.00000000
Si       2.71531494       0.00058644       2.71464362       0.00000000
Si       2.71495656      -2.71503149      -0.00017308       0.00000000
Si       0.00169416       2.71309950      -2.71727439       0.00000000
