10
Lattice="16.28999089631971 0.0 0.0 0.0 16.28999089631971 0.0 0.0 0.0 34.61538196595647" Properties=species:S:1:pos:R:3:initial_magmoms:R:1 pbc="T T T"
Si      -0.02436984       1.57908744      -1.75032777       0.00000000
Si       1.63123173      -1.79929566       0.16366162       0.00000000
Si      -2.25694692      -1.11509937      -0.06358849       0.00000000
Si       1.51560531       0.76124799       2.05373176       0.00000000
Si      -1.39388643      -1.87815555       2.02271636       0.00000000
Si      -0.20610108      -0.25084971       3.43558693       0.00000000
Si       1.93354155       2.79673236      -1.56066998       0.00000000
Si      -0.74204208       0.45261765      -3.66784792       0.00000000
Si       0.37484919      -3.50103051       1.43508531       0.00000000
Si      -1.76741613       3.14297631      -1.39780452       0.00000000
