10
Lattice="16.28999089631971 0.0 0.0 0.0 16.28999089631971 0.0 0.0 0.0 34.61538196595647" Properties=species:S:1:pos:R:3:initial_magmoms:R:1 pbc="T T T"
Si       1.34913780       1.35984033      -1.38323144       0.00000000
Si      -1.36780614      -1.35511623      -1.38181220       0.00000000
Si      -1.35422028       1.42574967       1.43238531       0.00000000
Si       1.35259128      -1.47144312       1.47894302       0.00000000
Si       2.68146432       2.72789082      -0.01031539       0.00000000
Si       2.69895978      -2.71785618      -0.01592308       0.00000000
Si      -2.72266662      -2.71068858       0.00013846       0.00000000
Si      -2.73019423       2.70845685      -0.02599617       0.00000000
Si       2.70775638       0.00254124      -2.74489748       0.00000000
Si      -0.00785178      -2.71298547      -2.74316671       0.00000000
