10
Lattice="16.28999089631971 0.0 0.0 0.0 16.28999089631971 0.0 0.0 0.0 34.61538196595647" Properties=species:S:1:pos:R:3:initial_magmoms:R:1 pbc="T T T"
Si       0.39035727       1.85811885      -1.39281990       0.00000000
Si      -2.06892774      -1.06082109       0.40963866       0.00000000
Si       1.07030187      -1.75194389      -1.32597756       0.00000000
Si       0.74657070       0.91755054       2.14248565       0.00000000
Si      -1.18386598      -3.09456962       1.12963901       0.00000000
Si       2.71914309       1.53523476      -1.67998927       0.00000000
Si       3.66700932       0.01848915      -0.06815773       0.00000000
Si       1.11050559       3.59821665       0.04358079       0.00000000
Si       3.11746617       1.06631082       1.90682400       0.00000000
Si      -0.22512780      -3.70940309      -1.03188511       0.00000000
