10
Lattice="16.28999089631971 0.0 0.0 0.0 16.28999089631971 0.0 0.0 0.0 34.61538196595647" Properties=species:S:1:pos:R:3:initial_magmoms:R:1 pbc="T T T"
Si      -1.35615879       1.35488558      -1.36028143       0.00000000
Si       1.35746199      -1.35966114      -1.36024681       0.00000000
Si      -1.37132478      -1.34965908       1.36010835       0.00000000
Si       1.35799956       1.36951400       1.36391604       0.00000000
Si      -0.14845077       2.58633791       2.75531671       0.00000000
Si       2.71256193       2.71423070       0.00062308       0.00000000
Si      -2.71158453       2.71675565       0.00065769       0.00000000
Si      -2.71282257      -2.71577106      -0.00058846       0.00000000
Si       2.71531494      -2.71479366       0.00681923       0.00000000
Si       0.00187335       2.71348136      -2.71713593       0.00000000
