10
Lattice="16.28999089631971 0.0 0.0 0.0 16.28999089631971 0.0 0.0 0.0 34.61538196595647" Properties=species:S:1:pos:R:3:initial_magmoms:R:1 pbc="T T T"
Si      -1.35664749       1.35705933      -1.35799681       0.00000000
Si      -1.35829278      -1.35851366       1.35657758       0.00000000
Si       1.35946566       1.35743074       1.35671604       0.00000000
Si       1.35852084      -1.35799238      -1.35761604       0.00000000
Si      -2.71388142       2.71462883      -0.00031154       0.00000000
Si      -0.00184077       2.71431932      -2.71550900       0.00000000
Si      -2.71461447      -2.71547066      -0.00031154       0.00000000
Si       0.00001629      -2.71602452      -2.71447054       0.00000000
Si       2.71541268       2.71519898       0.00003462       0.00000000
Si      -2.71559187      -0.00054946      -2.71502439       0.00000000
