10
Lattice="16.28999089631971 0.0 0.0 0.0 16.28999089631971 0.0 0.0 0.0 34.61538196595647" Properties=species:S:1:pos:R:3:initial_magmoms:R:1 pbc="T T T"
Si       1.35594702       1.35776824      -1.35668142       0.00000000
Si       1.35435060      -1.35706388       1.36041989       0.00000000
Si      -1.35946566      -1.35743074      -1.35671604       0.00000000
Si      -1.36265850       1.35794743       1.36073143       0.00000000
Si       2.71337643      -2.71475523      -0.00038077       0.00000000
Si       2.71277370       2.71560490      -0.00010385       0.00000000
Si       2.71423980      -0.00100183      -2.71443592       0.00000000
Si      -0.00094482      -2.71542312      -2.71433208       0.00000000
Si      -0.00232947       2.71521394      -2.71488592       0.00000000
Si      -2.71611315      -0.00037141      -2.71471285       0.00000000
