10
Lattice="16.28999089631971 0.0 0.0 0.0 16.28999089631971 0.0 0.0 0.0 34.61538196595647" Properties=species:S:1:pos:R:3:initial_magmoms:R:1 pbc="T T T"
Si       1.42094412      -0.20743686       1.83433935       0.00000000
Si      -2.22075054      -0.42088473       0.61290030       0.00000000
Si       0.52383753       2.15668197      -0.75184652       0.00000000
Si      -0.28430937      -1.15492842      -2.04687791       0.00000000
Si       1.10631906      -2.51314138       1.94119709       0.00000000
Si      -1.67827725       2.88194535      -0.51943871       0.00000000
Si      -3.16861677       1.09586088      -0.99893125       0.00000000
Si      -1.01120175      -3.20872552      -1.22950444       0.00000000
Si      -2.40810183      -0.15947910      -2.77785134       0.00000000
Si       3.52535148       0.51095214       1.13538516       0.00000000
