10
Lattice="16.28999089631971 0.0 0.0 0.0 16.28999089631971 0.0 0.0 0.0 34.61538196595647" Properties=species:S:1:pos:R:3:initial_magmoms:R:1 pbc="T T T"
Si      -2.00797056      -1.12783163      -0.32988477       0.00000000
Si       0.29719476       1.69904700       1.57991615       0.00000000
Si       0.74872098       0.90347598      -2.23958185       0.00000000
Si      -0.74025018      -2.65835600       1.53218151       0.00000000
Si       2.56023414      -0.89334360      -2.29250880       0.00000000
Si       2.64696210       1.40473557       1.93693940       0.00000000
Si      -2.51486649       2.56859091      -0.27702706       0.00000000
Si       3.03109659      -0.89994105       1.99564712       0.00000000
Si       1.14468201      -2.04813355       2.99440529       0.00000000
Si      -2.88303678      -0.65054115      -2.49248197       0.00000000
