10
Lattice="16.28999089631971 0.0 0.0 0.0 16.28999089631971 0.0 0.0 0.0 34.61538196595647" Properties=species:S:1:pos:R:3:initial_magmoms:R:1 pbc="T T T"
Si      -0.03989421      -1.11478497       2.03358560       0.00000000
Si       2.22062022      -0.06782993      -0.71328496       0.00000000
Si      -1.34213799      -0.72187180      -1.77670470       0.00000000
Si      -0.28234480       2.30218425       0.34553094       0.00000000
Si      -1.03846469       1.19767338      -3.16093999       0.00000000
Si       1.95398550       2.89129581       1.25910061       0.00000000
Si      -0.46677203       3.14100522      -1.94188940       0.00000000
Si       3.02620959      -2.19583403      -0.05528080       0.00000000
Si       2.02662261      -2.43363545       2.10247024       0.00000000
Si      -2.02431662      -2.39429510       2.21784338       0.00000000
