10
Lattice="16.28999089631971 0.0 0.0 0.0 16.28999089631971 0.0 0.0 0.0 34.61538196595647" Properties=species:S:1:pos:R:3:initial_magmoms:R:1 pbc="T T T"
Si      -0.85600692      -1.16711890       1.81329318       0.00000000
Si       0.31462506       2.30570452      -0.10685774       0.00000000
Si      -0.14599098      -1.31959330      -1.95881633       0.00000000
Si      -1.10631906       2.51314138      -1.94119709       0.00000000
Si       1.38756591      -1.41806635       2.74693979       0.00000000
Si       2.60798013       0.54274370       2.18049336       0.00000000
Si      -2.00583657      -2.89561822       0.66053109       0.00000000
Si      -0.77098941      -3.49355896      -1.22715059       0.00000000
Si       3.59598492       1.22717620       0.10073082       0.00000000
Si       1.95102072      -0.89098711      -3.14795921       0.00000000
