10
Lattice="16.28999089631971 0.0 0.0 0.0 16.28999089631971 0.0 0.0 0.0 34.61538196595647" Properties=species:S:1:pos:R:3:initial_magmoms:R:1 pbc="T T T"
Si      -2.05858100       0.19012059      -1.11530823       0.00000000
Si       0.57169266       1.94333184       1.21905059       0.00000000
Si      -0.30367329      -1.91954518       1.38423528       0.00000000
Si       1.89953780      -0.57441798      -1.32549295       0.00000000
Si       3.46057592      -0.05799240       0.39745404       0.00000000
Si       1.03846469      -1.19767338       3.16093999       0.00000000
Si      -2.95236443      -1.97705051      -0.78902346       0.00000000
Si       0.29031223      -3.72930947      -0.08505004       0.00000000
Si       2.85642869       2.28561732       0.81851578       0.00000000
Si       0.75611990       1.10451087       3.50647092       0.00000000
