10
Lattice="16.28999089631971 0.0 0.0 0.0 16.28999089631971 0.0 0.0 0.0 34.61538196595647" Properties=species:S:1:pos:R:3:initial_magmoms:R:1 pbc="T T T"
Si      -1.63123173       1.79929566      -0.16366162       0.00000000
Si      -1.25638254      -1.70173485       1.27142369       0.00000000
Si       1.25059959      -0.41042655      -2.10603563       0.00000000
Si       1.69704333       0.88412346       1.77390086       0.00000000
Si      -0.11562642       2.56054365       1.89007014       0.00000000
Si       0.90463257      -1.01950965       3.21948298       0.00000000
Si      -3.02511816      -0.07885989       1.85905474       0.00000000
Si       3.13056333       1.98438264      -0.55533488       0.00000000
Si      -1.91959731      -3.16482120      -0.82322347       0.00000000
Si      -3.88817865       0.68419629      -0.22725011       0.00000000
