10
Lattice="16.28999089631971 0.0 0.0 0.0 16.28999089631971 0.0 0.0 0.0 34.61538196595647" Properties=species:S:1:pos:R:3:initial_magmoms:R:1 pbc="T T T"
Si      -1.34947989      -1.33400439       1.35927758       0.00000000
Si      -1.35329175       1.35641943      -1.35488142       0.00000000
Si       1.35899325      -1.35646830      -1.35533142       0.00000000
Si       1.35125550       1.35501849       1.38118913       0.00000000
Si       0.14178816      -2.53022796       2.73787055       0.00000000
Si      -2.71272483      -0.00001629      -2.71239362       0.00000000
Si       0.00156384      -2.71463076      -2.71218592       0.00000000
Si       0.00197109       2.71523349      -2.71201285       0.00000000
Si       2.71733490      -0.00006516      -2.71208208       0.00000000
Si      -2.71417464       2.71679733       0.01211539       0.00000000
