10
Lattice="16.28999089631971 0.0 0.0 0.0 16.28999089631971 0.0 0.0 0.0 34.61538196595647" Properties=species:S:1:pos:R:3:initial_magmoms:R:1 pbc="T T T"
Si       0.63188910      -1.32993189       1.78996240       0.00000000
Si       1.64965572       1.44967968      -0.82239270       0.00000000
Si      -0.94602546      -1.62339624      -1.45495455       0.00000000
Si      -1.86163749       1.04093100       1.05441974       0.00000000
Si       0.37980135       3.46902066      -0.41483097       0.00000000
Si      -3.20673537      -1.44041067      -0.83627348       0.00000000
Si      -0.83202804      -3.21660711       1.57250845       0.00000000
Si      -3.54418272       0.83443896      -0.53934257       0.00000000
Si       2.52294633      -2.48240052       1.02143126       0.00000000
Si       3.57246216       1.28200671       0.63775415       0.00000000
