10
Lattice="16.28999089631971 0.0 0.0 0.0 16.28999089631971 0.0 0.0 0.0 34.61538196595647" Properties=species:S:1:pos:R:3:initial_magmoms:R:1 pbc="T T T"
Si      -0.63188910       1.32993189      -1.78996240       0.00000000
Si       1.89105723      -1.15246863      -0.76853114       0.00000000
Si      -1.46391714      -1.88667522      -0.21745395       0.00000000
Si       0.02441871       1.26759006       2.05397407       0.00000000
Si      -0.22494861      -2.97356031       1.44879301       0.00000000
Si      -2.49352659       2.37086289      -0.73554266       0.00000000
Si      -1.57791456      -0.29346435      -3.24491695       0.00000000
Si      -1.02027528      -2.46167964      -2.45153195       0.00000000
Si       2.07063819      -2.84394078       0.88553120       0.00000000
Si      -3.45864393       0.86050296       0.79030423       0.00000000
