10
Lattice="16.28999089631971 0.0 0.0 0.0 16.28999089631971 0.0 0.0 0.0 34.61538196595647" Properties=species:S:1:pos:R:3:initial_magmoms:R:1 pbc="T T T"
Si      -0.94732866      -1.78398306       1.29926628       0.00000000
Si       1.79967033       0.90450225       1.45390366       0.00000000
Si       1.79071083      -1.06385103      -1.40088529       0.00000000
Si      -1.88533944       1.84511943       0.17994751       0.00000000
Si      -2.21381100      -0.44471700       2.82515125       0.00000000
Si       0.53460522       2.28069774       2.86152857       0.00000000
Si       3.28013811       2.11361121       0.12032313       0.00000000
Si      -0.78809391       3.59259660       1.45105482       0.00000000
Si      -3.71866491       0.89122590       1.31571552       0.00000000
Si       2.94034500      -2.79230148      -0.00778847       0.00000000
