10
Lattice="16.28999089631971 0.0 0.0 0.0 16.28999089631971 0.0 0.0 0.0 34.61538196595647" Properties=species:S:1:pos:R:3:initial_magmoms:R:1 pbc="T T T"
Si       1.48046778       1.20910896      -1.33358053       0.00000000
Si      -1.26506511       1.37619549       1.40762491       0.00000000
Si       1.45068966      -1.34605899       1.37857220       0.00000000
Si      -1.79967033      -0.90450225      -1.45390366       0.00000000
Si      -0.00895950      -1.96835328      -2.85478896       0.00000000
Si      -2.58776424       2.68809435      -0.00284885       0.00000000
Si       2.74887234       2.61892701       0.11035736       0.00000000
Si      -2.62695798       0.01164735       2.75607133       0.00000000
Si      -2.74699899      -2.68848531      -0.15463738       0.00000000
Si       0.08583201      -2.70650205       2.75974056       0.00000000
