10
Lattice="16.28999089631971 0.0 0.0 0.0 16.28999089631971 0.0 0.0 0.0 34.61538196595647" Properties=species:S:1:pos:R:3:initial_magmoms:R:1 pbc="T T T"
Si       1.36013355       1.35160315       1.38534644       0.00000000
Si      -1.35446463      -1.36511829       1.38500028       0.00000000
Si       1.39976712      -1.40248755      -1.37499297       0.00000000
Si      -1.39962051       1.40781505      -1.42597107       0.00000000
Si      -2.70492192       2.70395171       0.03482309       0.00000000
Si       2.72406267       2.69642573       0.00378692       0.00000000
Si      -2.70169650      -2.72359026       0.02291886       0.00000000
Si       2.72246625      -2.71438641       0.03548079       0.00000000
Si      -0.00032580       2.70747035       2.74635479       0.00000000
Si      -2.71407690      -0.00739844       2.74683940       0.00000000
