10
Lattice="16.28999089631971 0.0 0.0 0.0 16.28999089631971 0.0 0.0 0.0 34.61538196595647" Properties=species:S:1:pos:R:3:initial_magmoms:R:1 pbc="T T T"
Si       1.22041422       1.96081005      -0.56644643       0.00000000
Si       1.26985437      -2.01934098      -0.40756174       0.00000000
Si      -2.24357283       0.25094745      -0.93364660       0.00000000
Si      -0.21638007       0.36124704       2.41643193       0.00000000
Si      -1.38756591       1.41806635      -2.74693979       0.00000000
Si      -0.37980135      -3.46902066       0.41483097       0.00000000
Si      -2.45522880      -0.30832083       2.51048198       0.00000000
Si      -2.24143884      -2.42808966       1.46925071       0.00000000
Si       3.31525935       1.46672784       0.43425021       0.00000000
Si      -3.76888698       0.76102809       0.86607734       0.00000000
