10
Lattice="16.28999089631971 0.0 0.0 0.0 16.28999089631971 0.0 0.0 0.0 34.61538196595647" Properties=species:S:1:pos:R:3:initial_magmoms:R:1 pbc="T T T"
Si      -2.23884873      -0.66956787       0.09405005       0.00000000
Si       1.04508495      -1.48625073       1.63363925       0.00000000
Si       0.37481661       2.36583647       0.50853486       0.00000000
Si       0.21638007      -0.36124704      -2.41643193       0.00000000
Si      -2.02505877      -2.78933670      -0.94718123       0.00000000
Si       3.26176299      -1.36208835       0.78462730       0.00000000
Si       1.43679429       1.59956301      -2.98287836       0.00000000
Si      -1.41170769       2.91221936       2.05432022       0.00000000
Si      -3.55250691       0.39978105      -1.55035459       0.00000000
Si       0.97111206      -0.32767335       3.76823259       0.00000000
