10
Lattice="16.28999089631971 0.0 0.0 0.0 16.28999089631971 0.0 0.0 0.0 34.61538196595647" Properties=species:S:1:pos:R:3:initial_magmoms:R:1 pbc="T T T"
Si      -0.82562607       0.41942677       2.16747797       0.00000000
Si       0.85632362      -2.29643292       0.56045796       0.00000000
Si      -1.29648852       0.42602422      -2.12067795       0.00000000
Si       2.05069013       1.43628115      -0.35390786       0.00000000
Si      -1.20976056       2.72410339       2.10877025       0.00000000
Si      -0.20562867       3.80514037       0.37592326       0.00000000
Si      -1.31090517      -3.28798893       1.61390847       0.00000000
Si       0.28294101       1.40000332      -3.64316714       0.00000000
Si       1.65626036       2.77610107      -2.29465495       0.00000000
Si      -3.85672266       1.31936782       0.17183085       0.00000000
