10
Lattice="16.28999089631971 0.0 0.0 0.0 16.28999089631971 0.0 0.0 0.0 34.61538196595647" Properties=species:S:1:pos:R:3:initial_magmoms:R:1 pbc="T T T"
Si      -0.13975191       0.01215234       2.32771266       0.00000000
Si      -0.03821634       2.02888692      -1.18519673       0.00000000
Si       1.49062364      -1.19073384      -1.37769297       0.00000000
Si      -2.14037568      -0.97650405      -0.42646174       0.00000000
Si      -0.39812760       0.96842421      -3.27039389       0.00000000
Si      -0.01399311      -1.33625241      -3.21168616       0.00000000
Si      -2.17129410       2.70785412      -0.56907720       0.00000000
Si      -1.03353534      -2.15501876       2.65399743       0.00000000
Si      -3.31732818       0.82041327      -1.33300449       0.00000000
Si      -1.90040769      -2.48444491      -2.21292799       0.00000000
