10
Lattice="16.28999089631971 0.0 0.0 0.0 16.28999089631971 0.0 0.0 0.0 34.61538196595647" Properties=species:S:1:pos:R:3:initial_magmoms:R:1 pbc="T T T"
Si      -1.57457511      -1.14114545       1.24473318       0.00000000
Si      -0.80770707       0.95553882      -2.01883944       0.00000000
Si       1.15720902       1.60344099       1.35793246       0.00000000
Si       0.73761120      -2.04325959      -1.52716228       0.00000000
Si       1.13280660       2.52732834      -1.59227384       0.00000000
Si      -0.18265977      -2.36497310       2.74755044       0.00000000
Si      -0.86047038      -0.95439526      -3.42879396       0.00000000
Si       2.54288529      -2.68875314       0.07540000       0.00000000
Si       2.54402559       0.35090289       2.74894544       0.00000000
Si      -2.80821681      -2.58765740      -0.14455392       0.00000000
