10
Lattice="16.28999089631971 0.0 0.0 0.0 16.28999089631971 0.0 0.0 0.0 34.61538196595647" Properties=species:S:1:pos:R:3:initial_magmoms:R:1 pbc="T T T"
Si      -0.05276331      -1.90993408      -1.40995453       0.00000000
Si       0.80770707      -0.95553882       2.01883944       0.00000000
Si      -0.87061905       1.75125645      -1.56451229       0.00000000
Si       1.94051367       1.57178952       0.42656559       0.00000000
Si       1.54531827      -2.99879841       0.49167716       0.00000000
Si       0.92546748       1.24654338      -3.10524381       0.00000000
Si       2.95140591       1.42105815      -1.77397009       0.00000000
Si       0.19833075      -1.02737772      -3.61606328       0.00000000
Si      -0.76686804      -2.09668427       3.26357261       0.00000000
Si       1.96491609       0.64790217       3.37677190       0.00000000
