10
Lattice="16.28999089631971 0.0 0.0 0.0 16.28999089631971 0.0 0.0 0.0 34.61538196595647" Properties=species:S:1:pos:R:3:initial_magmoms:R:1 pbc="T T T"
Si       1.57477059      -1.07963834      -1.53737382       0.00000000
Si      -1.85474682      -1.62494609       0.05856926       0.00000000
Si       1.80527409      -0.64549355       1.60256227       0.00000000
Si      -0.73761120       2.04325959       1.52716228       0.00000000
Si      -1.59808158       1.08886433      -1.90163169       0.00000000
Si      -1.54531827       2.99879841      -0.49167716       0.00000000
Si       0.39087855      -1.78045043       2.98768094       0.00000000
Si       2.46707230      -2.47046225       0.28062706       0.00000000
Si      -0.87752601      -3.19026848       1.54374305       0.00000000
Si      -2.95226928      -0.89787452      -1.95476633       0.00000000
