10
Lattice="16.28999089631971 0.0 0.0 0.0 16.28999089631971 0.0 0.0 0.0 34.61538196595647" Properties=species:S:1:pos:R:3:initial_magmoms:R:1 pbc="T T T"
Si       0.86550399       1.98324234       1.27239292       0.00000000
Si      -1.40504508       1.27602828      -1.66780465       0.00000000
Si       1.30864086      -1.40849856      -1.66558926       0.00000000
Si      -0.79019532      -2.02413024       1.32486987       0.00000000
Si      -2.64769515      -2.73313620      -0.24189242       0.00000000
Si       2.65173507       2.74576095      -0.25549628       0.00000000
Si       2.60074737      -2.84697072      -0.25054627       0.00000000
Si      -2.62410723       2.83208166      -0.32368862       0.00000000
Si      -0.04786002       2.64606615      -3.05491301       0.00000000
Si       2.66264937      -0.06856461      -3.05491301       0.00000000
