10
Lattice="16.28999089631971 0.0 0.0 0.0 16.28999089631971 0.0 0.0 0.0 34.61538196595647" Properties=species:S:1:pos:R:3:initial_magmoms:R:1 pbc="T T T"
Si      -2.18558043      -0.86490126      -0.21620780       0.00000000
Si       1.02070926      -0.52061211      -2.10603563       0.00000000
Si       0.35228754       2.38977558       0.09411928       0.00000000
Si       0.67476438      -0.71687403       2.22545877       0.00000000
Si      -3.15872874       1.25025750      -0.07878465       0.00000000
Si       2.45986723       2.10733956       1.08000052       0.00000000
Si      -1.44964710      -1.37788965       3.01569376       0.00000000
Si       3.20815979      -1.09644732      -1.55329690       0.00000000
Si      -2.26131264      -2.70560610       1.21898136       0.00000000
Si       1.66122881       1.24608726       3.11427843       0.00000000
