10
Lattice="16.28999089631971 0.0 0.0 0.0 16.28999089631971 0.0 0.0 0.0 34.61538196595647" Properties=species:S:1:pos:R:3:initial_magmoms:R:1 pbc="T T T"
Si       1.01089224      -0.15073137      -2.20053568       0.00000000
Si       1.84991913      -0.07284888       1.64253084       0.00000000
Si      -1.94051367      -1.57178952      -0.42656559       0.00000000
Si      -0.92051532       2.34768222      -0.31821938       0.00000000
Si       0.02440242      -0.92388735       2.95020631       0.00000000
Si      -1.13280660      -2.52732834       1.59227384       0.00000000
Si      -2.81113272       0.17946693      -1.99107788       0.00000000
Si       2.24711006       1.93396509      -1.90055861       0.00000000
Si      -1.01504619      -0.32524614      -3.53180940       0.00000000
Si      -3.27184650       2.14985646      -0.82647732       0.00000000
