10
Lattice="16.28999089631971 0.0 0.0 0.0 16.28999089631971 0.0 0.0 0.0 34.61538196595647" Properties=species:S:1:pos:R:3:initial_magmoms:R:1 pbc="T T T"
Si      -1.68028092       1.65483594       0.33798478       0.00000000
Si      -0.94410324      -1.72237428      -1.37717374       0.00000000
Si       1.08224474      -0.06082686       2.15501642       0.00000000
Si       1.65939781       0.82557720      -1.60511616       0.00000000
Si      -0.31732920       3.30206445      -0.67756187       0.00000000
Si       2.11352554       3.04569243      -0.79300423       0.00000000
Si      -3.10070376      -2.25264636      -0.31825400       0.00000000
Si       0.21048309       1.70318466       3.46455167       0.00000000
Si       3.26468609       0.93758724       1.92503170       0.00000000
Si      -1.91034459       2.25756594       2.65517436       0.00000000
