10
Lattice="16.28999089631971 0.0 0.0 0.0 16.28999089631971 0.0 0.0 0.0 34.61538196595647" Properties=species:S:1:pos:R:3:initial_magmoms:R:1 pbc="T T T"
Si       0.69199920      -1.27553958      -1.79896241       0.00000000
Si       1.68397875       0.99225648       1.37063632       0.00000000
Si      -1.17307548      -1.62162063       1.42168019       0.00000000
Si      -1.14963417       1.72845045      -1.39309683       0.00000000
Si      -1.65933198      -1.47336534      -2.30722034       0.00000000
Si       0.31001499       2.35074474       2.84026433       0.00000000
Si      -2.43618579      -0.33146892       2.85943088       0.00000000
Si       2.26514079       0.03806973      -3.06297840       0.00000000
Si      -3.09285198      -2.57362452       0.02201540       0.00000000
Si       3.68675999       1.62416187       0.11398852       0.00000000
