10
Lattice="16.28999089631971 0.0 0.0 0.0 16.28999089631971 0.0 0.0 0.0 34.61538196595647" Properties=species:S:1:pos:R:3:initial_magmoms:R:1 pbc="T T T"
Si      -1.43492094       1.27922112      -1.28430408       0.00000000
Si      -1.37929059      -1.32999705       1.36462912       0.00000000
Si       1.33535224       1.38552966       1.36635989       0.00000000
Si       1.47118478      -1.45901385      -1.51927689       0.00000000
Si      -0.02052540       2.41417800      -2.66942275       0.00000000
Si       2.67780626       2.72945554      -0.01994539       0.00000000
Si      -0.02541557      -2.68724727       2.72411439       0.00000000
Si       2.70613457      -2.70604593       0.01182116       0.00000000
Si       2.68956764       0.02904507       2.72369901       0.00000000
Si      -2.73310362      -2.68576488      -0.01608924       0.00000000
