10
Lattice="16.28999089631971 0.0 0.0 0.0 16.28999089631971 0.0 0.0 0.0 34.61538196595647" Properties=species:S:1:pos:R:3:initial_magmoms:R:1 pbc="T T T"
Si      -0.97792128      -1.59681096      -1.55222383       0.00000000
Si       1.63724274       0.95930181      -1.54588921       0.00000000
Si      -1.75889646       1.82791719       0.05057310       0.00000000
Si       0.81335970      -0.36887076       3.10867073       0.00000000
Si      -1.81925091      -3.23019297      -0.01910770       0.00000000
Si       3.20907040       2.00399580      -0.10512697       0.00000000
Si      -2.09769588       1.85570793       2.55461662       0.00000000
Si      -2.39052492      -0.32164605      -2.99118606       0.00000000
Si       0.34096599       2.39818122      -2.98813990       0.00000000
Si       2.78057009      -2.73197961      -0.18529624       0.00000000
