10
Lattice="16.28999089631971 0.0 0.0 0.0 16.28999089631971 0.0 0.0 0.0 34.61538196595647" Properties=species:S:1:pos:R:3:initial_magmoms:R:1 pbc="T T T"
Si       0.95293242       2.12200056       0.40050019       0.00000000
Si      -1.40256900       0.77892264      -1.74987777       0.00000000
Si      -1.38783144      -0.90797202       1.71052006       0.00000000
Si       1.81082898      -1.51360164      -0.37260018       0.00000000
Si       0.22328703      -0.96962967       3.46704398       0.00000000
Si      -0.89782172      -2.95686306      -2.02091636       0.00000000
Si      -2.98231523       0.81935442       2.02884329       0.00000000
Si       1.52293581      -3.20657247       1.18007365       0.00000000
Si      -2.38903343      -1.18403865      -2.63869743       0.00000000
Si       1.81957671       2.82230766      -1.69255466       0.00000000
