10
Lattice="16.28999089631971 0.0 0.0 0.0 16.28999089631971 0.0 0.0 0.0 34.61538196595647" Properties=species:S:1:pos:R:3:initial_magmoms:R:1 pbc="T T T"
Si      -1.59448379       1.72732644       0.31832323       0.00000000
Si       1.38783144       0.90797202      -1.71052006       0.00000000
Si       1.61111847      -0.06165765       1.75652392       0.00000000
Si      -1.23621782      -2.08469646      -0.29997707       0.00000000
Si       0.67443695      -2.88771201      -1.44401608       0.00000000
Si      -2.24711006      -1.93396509       1.90055861       0.00000000
Si      -3.16762538       0.41371713       1.58233922       0.00000000
Si       2.91076725      -2.29860045      -0.53044641       0.00000000
Si      -0.01473756       1.68689466      -3.46039782       0.00000000
Si       3.19866042      -0.60562962      -2.08312024       0.00000000
