10
Lattice="16.28999089631971 0.0 0.0 0.0 16.28999089631971 0.0 0.0 0.0 34.61538196595647" Properties=species:S:1:pos:R:3:initial_magmoms:R:1 pbc="T T T"
Si       1.35692968       1.35648459       1.35664681       0.00000000
Si      -1.35651909      -1.35746362       1.35765065       0.00000000
Si      -1.35748020       1.35757602      -1.35713142       0.00000000
Si       1.35736951      -1.35776661      -1.35726989       0.00000000
Si      -2.71464897       2.71454931       0.00065769       0.00000000
Si      -2.71404624      -0.00013032      -2.71530131       0.00000000
Si      -0.00124344       2.71412577      -2.71543977       0.00000000
Si       2.71541794       2.71425609       0.00048462       0.00000000
Si      -2.71508880      -2.71501916       0.00013846       0.00000000
Si       2.71545052      -0.00074934      -2.71471285       0.00000000
