10
Lattice="16.28999089631971 0.0 0.0 0.0 16.28999089631971 0.0 0.0 0.0 34.61538196595647" Properties=species:S:1:pos:R:3:initial_magmoms:R:1 pbc="T T T"
Si       1.90105929       0.14380812       1.37796990       0.00000000
Si      -0.95293242      -2.12200056      -0.40050019       0.00000000
Si       0.86664429       0.70030710      -2.09305486       0.00000000
Si      -1.23505893       1.73491758       1.08214668       0.00000000
Si      -2.35550142      -1.34307792      -2.15037796       0.00000000
Si       2.19410010       2.42983269      -1.25574291       0.00000000
Si       2.26320228       2.45659716       1.11430438       0.00000000
Si       2.19256884      -1.16856315      -2.61045126       0.00000000
Si      -2.47549030       2.59631649      -0.74326190       0.00000000
Si       0.85789656      -3.63560220      -0.77310037       0.00000000
