10
Lattice="16.28999089631971 0.0 0.0 0.0 16.28999089631971 0.0 0.0 0.0 34.61538196595647" Properties=species:S:1:pos:R:3:initial_magmoms:R:1 pbc="T T T"
Si       1.32745581       1.72952559       0.83731194       0.00000000
Si       1.32592455      -1.86887025      -0.51739640       0.00000000
Si      -0.86664429      -0.70030710       2.09305486       0.00000000
Si      -1.41977124       0.94234392      -1.68043927       0.00000000
Si      -2.42350728      -1.18213272      -2.09160101       0.00000000
Si       0.17945064       3.56764032      -0.01623462       0.00000000
Si       3.32359983      -0.78692103      -1.04908897       0.00000000
Si      -2.08956717       2.88688122      -0.47011177       0.00000000
Si       1.03441500      -0.55649898       3.47102475       0.00000000
Si       3.52671984       1.18526040       0.22441165       0.00000000
