10
Lattice="16.28999089631971 0.0 0.0 0.0 16.28999089631971 0.0 0.0 0.0 34.61538196595647" Properties=species:S:1:pos:R:3:initial_magmoms:R:1 pbc="T T T"
Si      -0.47789647       0.46825605      -2.24532801       0.00000000
Si      -2.00278124      -0.63190539       1.25664780       0.00000000
Si       0.82754340       1.95333390       1.22308817       0.00000000
Si       1.69937280      -1.81749159       0.03094617       0.00000000
Si      -1.70943092       2.37278511      -1.50210072       0.00000000
Si      -0.69844157      -1.98435006       2.75300237       0.00000000
Si       2.06249319       0.70630182       2.75418621       0.00000000
Si       3.36416193      -0.71223138       1.31002475       0.00000000
Si       0.60630077      -3.40428420       1.42582711       0.00000000
Si      -1.42161920      -1.58609214      -3.17696692       0.00000000
