10
Lattice="16.28999089631971 0.0 0.0 0.0 16.28999089631971 0.0 0.0 0.0 34.61538196595647" Properties=species:S:1:pos:R:3:initial_magmoms:R:1 pbc="T T T"
Si       1.35704447      -1.35632169      -1.36197758       0.00000000
Si      -1.35764724       1.35896623      -1.36114681       0.00000000
Si      -1.35028416      -1.35376416       1.37765836       0.00000000
Si       1.35367244       1.35062575       1.38170836       0.00000000
Si       2.71464818      -2.71278999      -0.00186923       0.00000000
Si      -2.71686855      -2.71290402      -0.00096923       0.00000000
Si      -0.00108583      -2.71384884      -2.71907439       0.00000000
Si       2.71409432       0.00123010      -2.71890131       0.00000000
Si      -2.71621695       0.00141069      -2.71865900       0.00000000
Si      -0.00112814       2.71642985      -2.71879747       0.00000000
