10
Lattice="16.28999089631971 0.0 0.0 0.0 16.28999089631971 0.0 0.0 0.0 34.61538196595647" Properties=species:S:1:pos:R:3:initial_magmoms:R:1 pbc="T T T"
Si       1.35704985       1.35755179      -1.35692373       0.00000000
Si      -1.35813030      -1.35752715      -1.35709681       0.00000000
Si       1.35760371      -1.35646830       1.36010835       0.00000000
Si      -1.35704447       1.35632169       1.36197758       0.00000000
Si       2.69910150       0.00964368       2.72080516       0.00000000
Si       2.71192173      -2.71539639       0.00072692       0.00000000
Si       2.71447926      -0.00027693      -2.71384746       0.00000000
Si       2.71426749       2.71418834       0.00041538       0.00000000
Si      -0.00080310       2.71498492      -2.71408977       0.00000000
Si      -0.00023946      -2.71518462      -2.71405516       0.00000000
