10
Lattice="16.28999089631971 0.0 0.0 0.0 16.28999089631971 0.0 0.0 0.0 34.61538196595647" Properties=species:S:1:pos:R:3:initial_magmoms:R:1 pbc="T T T"
Si      -1.35082869      -1.34931699      -1.36215066       0.00000000
Si       1.36496191       1.36684503      -1.35906989       0.00000000
Si       1.37597395      -1.28270718       1.45838147       0.00000000
Si      -1.40369368       1.28699145       1.46270840       0.00000000
Si       2.00097238       0.72738108       2.62055896       0.00000000
Si      -0.26036633      -2.40428997       2.82330136       0.00000000
Si       0.16813398       2.33168544       2.90347063       0.00000000
Si      -2.70811543      -2.68978851       0.00408462       0.00000000
Si       0.00574711      -2.70511740      -2.71855516       0.00000000
Si      -2.70705658       0.00747711      -2.71876285       0.00000000
