10
Lattice="10.86 0.0 0.0 0.0 10.86 0.0 0.0 0.0 10.86" Properties=species:S:1:pos:R:3:initial_magmoms:R:1 pbc="T T T"
Si       0.76013484       1.01142438       1.65948402       0.00000000
Si      -1.42266000       1.27363908      -1.28219676       0.00000000
Si       1.29234000      -1.44136092      -1.28219676       0.00000000
Si      -1.42266000      -1.44136092       1.43280324       0.00000000
Si       2.51329722      -0.14359092      -2.63301786       0.00000000
Si       2.53018452      -0.14967252       2.73854448       0.00000000
Si      -0.02730204       2.67242880      -2.62602402       0.00000000
Si      -2.78016000       2.63113908       0.07530324       0.00000000
Si      -2.78016000      -0.08386092      -2.63969676       0.00000000
Si      -0.06516000      -2.79886092      -2.63969676       0.00000000
