10
Lattice="10.86 0.0 0.0 0.0 10.86 0.0 0.0 0.0 10.86" Properties=species:S:1:pos:R:3:initial_magmoms:R:1 pbc="T T T"
Si       1.14223308       1.44920184       1.20850080       0.00000000
Si       1.14223308      -1.26579816      -1.50649920       0.00000000
Si      -1.57276692      -1.26579816       1.20850080       0.00000000
Si       2.49973308       0.09170184       2.56600080       0.00000000
Si       2.49973308      -2.62329816      -0.14899920       0.00000000
Si      -0.21526692      -2.62329816       2.56600080       0.00000000
Si       0.02572734       2.50675950       2.74427856       0.00000000
Si       2.49973308       2.80670184      -0.14899920       0.00000000
Si      -0.32800458       2.46779382      -2.82055920       0.00000000
Si       2.49973308       0.09170184      -2.86399920       0.00000000
