10
Lattice="10.86 0.0 0.0 0.0 10.86 0.0 0.0 0.0 10.86" Properties=species:S:1:pos:R:3:initial_magmoms:R:1 pbc="T T T"
Si       1.47023766      -1.01859198      -1.40094000       0.00000000
Si      -1.24476234       1.69640802      -1.40094000       0.00000000
Si       1.47023766       1.69640802       1.31406000       0.00000000
Si       0.11273766      -2.37609198      -2.75844000       0.00000000
Si      -2.73880512      -2.43582198      -0.03676110       0.00000000
Si       2.82773766      -2.37609198      -0.04344000       0.00000000
Si       0.32800458      -2.46779382       2.82055920       0.00000000
Si      -2.60226234       0.33890802      -2.75844000       0.00000000
Si       2.82773766       0.33890802       2.67156000       0.00000000
Si       2.82773766       0.33890802      -2.75844000       0.00000000
