10
Lattice="10.86 0.0 0.0 0.0 10.86 0.0 0.0 0.0 10.86" Properties=species:S:1:pos:R:3:initial_magmoms:R:1 pbc="T T T"
Si      -1.48699464       1.33787598      -1.14019140       0.00000000
Si       1.22800536       1.33787598       1.57480860       0.00000000
Si       1.46171256      -1.47067206      -1.41241902       0.00000000
Si      -1.48699464      -1.37712402       1.57480860       0.00000000
Si      -0.09163668      -2.69333430      -2.48401866       0.00000000
Si      -0.12949464       2.69537598      -2.49769140       0.00000000
Si       2.58550536       2.69537598       0.21730860       0.00000000
Si      -2.84449464      -0.01962402      -2.49769140       0.00000000
Si       2.42118270      -0.00123804       2.91896166       0.00000000
Si       2.69374698       0.13738986      -2.78595924       0.00000000
