10
Lattice="16.28999089631971 0.0 0.0 0.0 16.28999089631971 0.0 0.0 0.0 34.28971787722196" Properties=species:S:1:pos:R:3:initial_magmoms:R:1 pbc="T T T"
Si       1.35637056       1.35777150       1.35780158       0.00000000
Si      -1.36080144      -1.35345628       1.35821306       0.00000000
Si      -1.38411243       1.35822762      -1.35493839       0.00000000
Si       1.35591444      -1.33259856      -1.45777674       0.00000000
Si       2.18574333       0.69294402      -2.60263356       0.00000000
Si      -2.31782265      -0.33791976      -2.63384408       0.00000000
Si       0.31042224       2.23293546      -2.72077203       0.00000000
Si      -0.42717267      -2.10108420      -2.86002265       0.00000000
Si       2.70176166      -2.70023759      -0.00772548       0.00000000
Si       2.71205694       0.00272043       2.71636096       0.00000000
