10
Lattice="16.28999089631971 0.0 0.0 0.0 16.28999089631971 0.0 0.0 0.0 34.28971787722196" Properties=species:S:1:pos:R:3:initial_magmoms:R:1 pbc="T T T"
Si       1.61984502      -1.69059738      -0.11332758       0.00000000
Si      -2.03924736      -0.93778272      -0.80526018       0.00000000
Si       0.36137736       1.67661567      -1.73132311       0.00000000
Si       0.09239688       0.67989573       2.33931444       0.00000000
Si      -2.27209662       1.23672051       2.24488050       0.00000000
Si      -1.62955386      -0.81129087      -3.08943673       0.00000000
Si       3.66469614      -0.58968171       0.29396592       0.00000000
Si       1.22549670      -3.11884172       1.77792287       0.00000000
Si      -1.31067711       1.49527539      -3.38974624       0.00000000
Si       2.52323955       1.43508384      -2.66733006       0.00000000
