10
Lattice="16.28999089631971 0.0 0.0 0.0 16.28999089631971 0.0 0.0 0.0 34.28971787722196" Properties=species:S:1:pos:R:3:initial_magmoms:R:1 pbc="T T T"
Si      -1.99540024       0.98818398       0.78550930       0.00000000
Si       0.49921845      -1.62779161       1.66010333       0.00000000
Si       1.67199094       1.68865398       0.29022833       0.00000000
Si       0.32003986      -0.41562632      -2.37247262       0.00000000
Si       0.05009827      -0.02884959       3.39351812       0.00000000
Si       0.83234244       3.09798333      -1.56042306       0.00000000
Si      -3.31506943      -0.88348001       1.18728215       0.00000000
Si       2.57879008      -1.17642959      -2.26943196       0.00000000
Si       2.87171686      -1.73798729       1.39740965       0.00000000
Si      -1.38766921       1.82527821       2.90866123       0.00000000
