10
Lattice="16.28999089631971 0.0 0.0 0.0 16.28999089631971 0.0 0.0 0.0 34.28971787722196" Properties=species:S:1:pos:R:3:initial_magmoms:R:1 pbc="T T T"
Si       0.33616696       2.07844436      -1.07320019       0.00000000
Si       2.25875022      -0.76080327       0.10304066       0.00000000
Si      -0.32003986       0.41562632       2.37247262       0.00000000
Si      -1.54599823      -1.45139406      -1.32992745       0.00000000
Si       0.51230258       3.51360965       0.81204955       0.00000000
Si       1.35195108       2.10428030       2.66270095       0.00000000
Si       2.21519076      -2.46652170       1.71798441       0.00000000
Si      -0.39515142      -3.61446171      -1.45566792       0.00000000
Si       3.73596000       0.95052476       0.80303135       0.00000000
Si      -3.56191831      -1.71108924      -0.01827643       0.00000000
