10
Lattice="16.28999089631971 0.0 0.0 0.0 16.28999089631971 0.0 0.0 0.0 34.28971787722196" Properties=species:S:1:pos:R:3:initial_magmoms:R:1 pbc="T T T"
Si      -2.13552126      -0.79148223       0.54829290       0.00000000
Si       0.94076379       0.76357746       2.05217218       0.00000000
Si       1.19110851      -2.08914363      -0.19318838       0.00000000
Si       0.44632971       1.33584516      -1.97412874       0.00000000
Si       2.19255255       2.40046182      -0.90418608       0.00000000
Si       2.94617682       1.38049605       1.04333383       0.00000000
Si      -3.41770716       0.89153541      -0.47865044       0.00000000
Si      -2.03820480      -2.86583454      -0.61862115       0.00000000
Si      -0.10050930      -2.98406736      -2.09966347       0.00000000
Si      -2.02445604      -0.97217091       2.97055421       0.00000000
