10
Lattice="16.28999089631971 0.0 0.0 0.0 16.28999089631971 0.0 0.0 0.0 34.28971787722196" Properties=species:S:1:pos:R:3:initial_magmoms:R:1 pbc="T T T"
Si      -1.35751086      -1.35713619       1.35708492       0.00000000
Si       1.35729909      -1.35733167      -1.35722208       0.00000000
Si       1.35772263       1.35615879       1.35849080       0.00000000
Si      -1.35783666       1.35782037      -1.35725637       0.00000000
Si      -2.71450044      -2.71503801       0.00044577       0.00000000
Si       2.71458189      -2.71505430       0.00024003       0.00000000
Si      -0.00057015      -2.71510317      -2.71454703       0.00000000
Si       0.00050499       2.71443528      -2.71561001       0.00000000
Si       2.71463076       2.71557558      -0.00044577       0.00000000
Si      -2.71513575       2.71523349      -0.00017145       0.00000000
