10
Lattice="16.28999089631971 0.0 0.0 0.0 16.28999089631971 0.0 0.0 0.0 34.28971787722196" Properties=species:S:1:pos:R:3:initial_magmoms:R:1 pbc="T T T"
Si      -1.82866653       1.41734403      -0.50820819       0.00000000
Si      -0.46012734      -2.20511214       0.84260171       0.00000000
Si       1.27715229       1.14403041       1.70814325       0.00000000
Si       1.11353553      -0.25172937      -2.20133254       0.00000000
Si      -0.70757244       3.27935619      -1.38684841       0.00000000
Si       2.41385220      -2.15656794      -1.71362961       0.00000000
Si       1.41938028      -3.40708608       0.03926175       0.00000000
Si       2.68447797       2.68454313       0.59520126       0.00000000
Si      -2.39971248      -3.14279712      -0.07125407       0.00000000
Si      -0.14403618       2.65228893       2.94164796       0.00000000
