10
Lattice="16.28999089631971 0.0 0.0 0.0 16.28999089631971 0.0 0.0 0.0 34.28971787722196" Properties=species:S:1:pos:R:3:initial_magmoms:R:1 pbc="T T T"
Si       1.35689184      -1.35684297       1.35687918       0.00000000
Si       1.35839052       1.35720135      -1.35787359       0.00000000
Si      -1.35723393      -1.35798327      -1.35828506       0.00000000
Si      -1.35829278       1.35791811       1.35766785       0.00000000
Si       2.71524978      -0.00026064       2.71324402       0.00000000
Si       2.71451673      -2.71415835       0.00017145       0.00000000
Si      -0.00081450       2.71438641       2.71454703       0.00000000
Si      -2.71557558      -2.71459818       0.00006858       0.00000000
Si       2.71471221       2.71559187       0.00061722       0.00000000
Si       0.00201996      -2.71427238      -2.71615865       0.00000000
