10
Lattice="16.28999089631971 0.0 0.0 0.0 16.28999089631971 0.0 0.0 0.0 34.28971787722196" Properties=species:S:1:pos:R:3:initial_magmoms:R:1 pbc="T T T"
Si       0.12126276      -0.49537890       2.28458802       0.00000000
Si      -2.23063368      -0.48865113      -0.69968208       0.00000000
Si       0.93644694      -2.19397697      -0.18039831       0.00000000
Si       1.13272515       2.12310828      -0.32832423       0.00000000
Si       0.59098491      -2.19778883      -2.69579055       0.00000000
Si      -0.94719834      -3.34538675       0.78406913       0.00000000
Si       1.36557441      -0.05139495      -3.37846492       0.00000000
Si      -1.78151350      -2.08759315      -2.43309687       0.00000000
Si      -0.19766286       2.94176223      -2.24676644       0.00000000
Si      -2.98402568      -2.02725108       0.89197893       0.00000000
