10
Lattice="16.28999089631971 0.0 0.0 0.0 16.28999089631971 0.0 0.0 0.0 34.28971787722196" Properties=species:S:1:pos:R:3:initial_magmoms:R:1 pbc="T T T"
Si       1.83207114       0.99392492      -1.04696854       0.00000000
Si      -1.14590376      -1.83112632      -0.88529243       0.00000000
Si      -1.61823231       1.80740712       0.30202400       0.00000000
Si      -0.20338065       1.31092539       2.35285889       0.00000000
Si       1.85714145       0.16690734       2.25160129       0.00000000
Si      -2.30469291      -0.38318967      -2.36966086       0.00000000
Si       0.42614640       2.36922642      -2.35714510       0.00000000
Si       1.31421204      -2.17965087       2.32405551       0.00000000
Si      -2.25753336       0.08834067       2.64418449       0.00000000
Si       3.45227454       1.24427322       0.66052320       0.00000000
