10
Lattice="16.28999089631971 0.0 0.0 0.0 16.28999089631971 0.0 0.0 0.0 34.28971787722196" Properties=species:S:1:pos:R:3:initial_magmoms:R:1 pbc="T T T"
Si       2.05415271       1.22258472      -0.29132561       0.00000000
Si      -1.11928590       1.43364285       1.59721595       0.00000000
Si       1.07367390      -2.09339532       0.72193612       0.00000000
Si       0.63930105       1.71906645      -2.34216049       0.00000000
Si      -2.41836453      -1.12052394      -2.02710638       0.00000000
Si      -1.16284536      -0.27207558       3.21215970       0.00000000
Si       2.25753336      -0.08834067      -2.64418449       0.00000000
Si       0.57215367      -1.83751200       3.14059702       0.00000000
Si      -0.71089560      -2.96318358      -2.10713863       0.00000000
Si       2.44315791       2.31700068       1.71424682       0.00000000
