10
Lattice="16.28999089631971 0.0 0.0 0.0 16.28999089631971 0.0 0.0 0.0 34.28971787722196" Properties=species:S:1:pos:R:3:initial_magmoms:R:1 pbc="T T T"
Si      -0.26767728      -2.04599142      -1.11331918       0.00000000
Si      -1.87408305       0.06102234       1.41115984       0.00000000
Si      -0.38172357       1.45182411      -1.85929241       0.00000000
Si       1.99759383      -0.27220590       1.32601842       0.00000000
Si       3.47802903       0.12947292      -0.51942094       0.00000000
Si      -1.52575398      -2.05240968       2.50952870       0.00000000
Si      -1.53575604      -3.25516554       0.46390585       0.00000000
Si       2.46057192       1.99381359      -1.77425386       0.00000000
Si      -1.94430924       2.29572756       2.23339344       0.00000000
Si      -3.71451096       0.55317582       0.01330442       0.00000000
