10
Lattice="16.28999089631971 0.0 0.0 0.0 16.28999089631971 0.0 0.0 0.0 34.28971787722196" Properties=species:S:1:pos:R:3:initial_magmoms:R:1 pbc="T T T"
Si       1.91888055      -0.01027899      -1.38242504       0.00000000
Si      -1.99528065       0.34117776      -1.32553836       0.00000000
Si      -1.59858657      -2.03005980       0.30751036       0.00000000
Si       1.77640821       0.46635012       2.31345998       0.00000000
Si      -0.71796546      -2.35450773       2.41112268       0.00000000
Si      -3.40961103      -0.46587771       0.44034880       0.00000000
Si       1.52806716       2.12138154      -2.50904864       0.00000000
Si       0.12057858      -0.53385588       3.65867178       0.00000000
Si      -2.00528271      -0.86157810      -3.37116121       0.00000000
Si       3.99624651      -0.53043498       0.03720436       0.00000000
