10
Lattice="16.28999089631971 0.0 0.0 0.0 16.28999089631971 0.0 0.0 0.0 34.28971787722196" Properties=species:S:1:pos:R:3:initial_magmoms:R:1 pbc="T T T"
Si      -1.62020340      -0.25034830      -1.70749175       0.00000000
Si       1.89628632      -1.56932388      -0.01323584       0.00000000
Si      -1.59513309      -1.07736588       1.59107809       0.00000000
Si       0.81554256       2.25775816      -1.50953709       0.00000000
Si       0.29833506       3.00836878       1.60568552       0.00000000
Si      -0.31467393      -1.64318274      -3.02809239       0.00000000
Si       0.93128301      -3.15351009      -1.49167214       0.00000000
Si      -3.45227454      -1.24427322      -0.66052320       0.00000000
Si       3.57399342      -0.42679215      -1.41774347       0.00000000
Si       2.45273643       1.26169960       2.76008380       0.00000000
