10
Lattice="16.28999089631971 0.0 0.0 0.0 16.28999089631971 0.0 0.0 0.0 34.28971787722196" Properties=species:S:1:pos:R:3:initial_magmoms:R:1 pbc="T T T"
Si       1.35739683      -1.35746199       1.36092537       0.00000000
Si      -1.35733167       1.36005210       1.36037674       0.00000000
Si      -1.35654975      -1.37774304      -1.36279416       0.00000000
Si       1.38777768       1.35089712      -1.36420347       0.00000000
Si      -2.60781723      -0.01668096      -2.79900266       0.00000000
Si      -2.71360449      -2.71180444       0.00380616       0.00000000
Si       2.71337643       2.71454931       0.00524633       0.00000000
Si       2.71642266      -2.71544037      -0.00168020       0.00000000
Si      -2.71415835       0.00060273       2.71855893       0.00000000
Si      -0.00006516      -2.71410785       2.71862751       0.00000000
