10
Lattice="16.28999089631971 0.0 0.0 0.0 16.28999089631971 0.0 0.0 0.0 34.28971787722196" Properties=species:S:1:pos:R:3:initial_magmoms:R:1 pbc="T T T"
Si       1.35803214       1.35597960       1.35862796       0.00000000
Si      -1.36070370       1.35553977      -1.35650200       0.00000000
Si      -1.35682668      -1.35944937       1.35818219       0.00000000
Si       1.35733167      -1.36005210      -1.36037674       0.00000000
Si      -2.71404432       2.71370223       0.00072008       0.00000000
Si       2.71529865       2.71283886       0.00068579       0.00000000
Si       0.00047241       2.71296918       2.71561001       0.00000000
Si       2.71541268      -0.00138465       2.71557572       0.00000000
Si      -2.71505430      -0.00177561       2.71595291       0.00000000
Si       2.71472850      -2.71751409       0.00054864       0.00000000
