10
Lattice="16.28999089631971 0.0 0.0 0.0 16.28999089631971 0.0 0.0 0.0 34.28971787722196" Properties=species:S:1:pos:R:3:initial_magmoms:R:1 pbc="T T T"
Si      -1.35658233       1.28155059      -1.53395139       0.00000000
Si       1.87263324       0.06674013       1.55901718       0.00000000
Si       1.32916626      -1.45308429      -1.52400736       0.00000000
Si      -1.85665275      -0.89671563       1.40125010       0.00000000
Si      -2.65139298      -2.71881729      -0.03140940       0.00000000
Si      -2.77768935       2.59546941      -0.10046893       0.00000000
Si       2.48824863      -3.00328956      -0.02924915       0.00000000
Si      -0.00535941       2.62306467      -2.91281029       0.00000000
Si      -3.70810899       0.77761944       1.12669218       0.00000000
Si       2.70827766      -0.08775423      -2.91452478       0.00000000
