10
Lattice="16.28999089631971 0.0 0.0 0.0 16.28999089631971 0.0 0.0 0.0 34.28971787722196" Properties=species:S:1:pos:R:3:initial_magmoms:R:1 pbc="T T T"
Si       2.02712760       0.67222314       1.08481927       0.00000000
Si      -0.82973115      -1.97045469       1.20184671       0.00000000
Si      -1.84748148       1.65802878      -0.13337649       0.00000000
Si       0.37235682       0.66124368      -2.40963210       0.00000000
Si       0.61672311       2.07330975       2.57723550       0.00000000
Si      -2.11970367      -0.64096263       2.61471761       0.00000000
Si      -0.83645892       3.42406026       1.18446867       0.00000000
Si      -3.50331111       0.65782278       1.21183531       0.00000000
Si       1.46852721       2.83893975      -1.99434910       0.00000000
Si      -2.58150888      -2.87816607      -0.13337649       0.00000000
