10
Lattice="16.28999089631971 0.0 0.0 0.0 16.28999089631971 0.0 0.0 0.0 34.28971787722196" Properties=species:S:1:pos:R:3:initial_magmoms:R:1 pbc="T T T"
Si       1.35378045      -1.35542574      -1.36006813       0.00000000
Si      -1.35122292      -1.34151408       1.37885891       0.00000000
Si      -1.35948195       1.35868374      -1.35811361       0.00000000
Si       1.34410419       1.37174832       1.38749992       0.00000000
Si       2.71363707      -2.71081890      -0.00171449       0.00000000
Si      -0.00262269      -2.71252935      -2.71636439       0.00000000
Si       2.71290402       0.00221544      -2.71670729       0.00000000
Si       2.70948312       2.72013678       0.00072008       0.00000000
Si      -2.71841004      -2.71151937       0.00281176       0.00000000
Si      -2.71720458       0.00252495      -2.71660442       0.00000000
