10
Lattice="16.28999089631971 0.0 0.0 0.0 16.28999089631971 0.0 0.0 0.0 34.28971787722196" Properties=species:S:1:pos:R:3:initial_magmoms:R:1 pbc="T T T"
Si       1.18884420       1.96411788      -0.32355796       0.00000000
Si       0.36901737       0.14336829      -2.35165875       0.00000000
Si       0.24412194      -0.48780405       2.32408980       0.00000000
Si      -2.16671661      -0.41677965      -0.91248419       0.00000000
Si      -1.37741724      -2.20372749       2.31544878       0.00000000
Si      -3.16118853      -1.66729779       0.84040717       0.00000000
Si      -0.53506134       3.61234008      -0.40839077       0.00000000
Si       2.03116752      -3.10521609       0.54126350       0.00000000
Si       2.21066703      -1.77616386       2.45788835       0.00000000
Si       2.01538251       1.82721672      -2.59302420       0.00000000
