10
Lattice="16.28999089631971 0.0 0.0 0.0 16.28999089631971 0.0 0.0 0.0 34.28971787722196" Properties=species:S:1:pos:R:3:initial_magmoms:R:1 pbc="T T T"
Si      -2.34031914       0.43860825       0.24565168       0.00000000
Si       0.64413918      -0.94871331       2.10312673       0.00000000
Si       0.14263524      -1.70250048      -1.70186823       0.00000000
Si       1.19164608       2.16955107       0.12817504       0.00000000
Si      -2.10517299       2.25170154       1.74397603       0.00000000
Si       1.09270062       0.88265736       3.56520683       0.00000000
Si      -0.49190913       3.72954663       0.89732813       0.00000000
Si      -1.09353141      -2.00753073       3.21325697       0.00000000
Si       2.38340619       2.27388852       2.19618908       0.00000000
Si       2.10918033      -2.99086029      -1.56806967       0.00000000
