10
Lattice="16.28999089631971 0.0 0.0 0.0 16.28999089631971 0.0 0.0 0.0 34.28971787722196" Properties=species:S:1:pos:R:3:initial_magmoms:R:1 pbc="T T T"
Si      -1.28412441       1.37028222       1.41018601       0.00000000
Si       1.45318203      -1.35075051       1.39276682       0.00000000
Si      -1.01102256      -1.76603148      -1.31784516       0.00000000
Si       1.62934209       1.20036123      -1.51675992       0.00000000
Si       0.83645892      -3.42406026      -1.18446867       0.00000000
Si      -2.62997163       2.73792124      -0.03986525       0.00000000
Si      -2.62997163      -0.00040725       2.77441006       0.00000000
Si      -2.66685219      -2.76623748       0.02736664       0.00000000
Si       0.08811261      -2.71682991       2.77646744       0.00000000
Si       0.08599491       2.71777377       2.77694750       0.00000000
