10
Lattice="16.28999089631971 0.0 0.0 0.0 16.28999089631971 0.0 0.0 0.0 34.28971787722196" Properties=species:S:1:pos:R:3:initial_magmoms:R:1 pbc="T T T"
Si       0.96500331       1.58418621       1.47843630       0.00000000
Si       1.44080163      -1.17198405      -1.53837476       0.00000000
Si      -1.24595694       1.51032735      -1.53642025       0.00000000
Si      -1.51140249      -1.49216400       1.59169530       0.00000000
Si      -0.93128301       3.15351009       1.49167214       0.00000000
Si       2.77509924      -2.53778652      -0.21657398       0.00000000
Si       2.64271041       2.72671794       0.07392867       0.00000000
Si       0.10013463      -2.53223163      -2.90070602       0.00000000
Si      -2.85140160      -2.60069850      -0.00037719       0.00000000
Si      -2.55148641       2.90316179      -0.21581960       0.00000000
