10
Lattice="16.28999089631971 0.0 0.0 0.0 16.28999089631971 0.0 0.0 0.0 34.28971787722196" Properties=species:S:1:pos:R:3:initial_magmoms:R:1 pbc="T T T"
Si      -2.06052210       1.14401805       0.10125759       0.00000000
Si       0.94791510       0.13251915       2.18802812       0.00000000
Si      -0.54292941      -2.34655821       0.07245421       0.00000000
Si       1.59513309       1.07736588      -1.59107809       0.00000000
Si      -1.85714145      -0.16690734      -2.25160129       0.00000000
Si      -0.02507031       0.82701758      -3.29856983       0.00000000
Si      -1.67151690       2.23843401       2.10683002       0.00000000
Si       0.33777315       3.45791807       1.69597039       0.00000000
Si       3.49141941      -0.49195800      -1.60431393       0.00000000
Si       2.13115554       2.10091871       2.46049437       0.00000000
