10
Lattice="16.28999089631971 0.0 0.0 0.0 16.28999089631971 0.0 0.0 0.0 34.28971787722196" Properties=species:S:1:pos:R:3:initial_magmoms:R:1 pbc="T T T"
Si       0.81195876      -1.58990400       1.47106401       0.00000000
Si       0.43621362       1.84906717       1.33390506       0.00000000
Si       0.74863953      -0.24827589      -2.18432483       0.00000000
Si      -2.32577217       0.37521215       0.27092321       0.00000000
Si       0.13631472       0.19557774       3.13312185       0.00000000
Si      -2.75239098      -1.11578355      -1.49047200       0.00000000
Si       1.01248866       2.01437972      -2.76443860       0.00000000
Si      -1.27195578      -0.71410473      -3.33591136       0.00000000
Si       3.14766783      -1.67870079       0.94564237       0.00000000
Si       2.73510729       2.54429342       0.92386839       0.00000000
