10
Lattice="16.28999089631971 0.0 0.0 0.0 16.28999089631971 0.0 0.0 0.0 34.28971787722196" Properties=species:S:1:pos:R:3:initial_magmoms:R:1 pbc="T T T"
Si       1.20588354       1.54031465       1.47808110       0.00000000
Si       0.29989890       1.65348943      -1.79921679       0.00000000
Si      -1.62934209      -1.20036123       1.51675992       0.00000000
Si       0.67564404      -1.78548174      -1.66205784       0.00000000
Si      -0.13631472      -0.19557774      -3.13312185       0.00000000
Si      -2.46208689       0.17963441      -2.86219864       0.00000000
Si       2.52120330       0.15517677       2.92212822       0.00000000
Si      -0.17616006      -2.55111174       2.90952675       0.00000000
Si       2.21745996       3.27854888       0.18417018       0.00000000
Si      -2.64036465      -2.96639271       0.19891476       0.00000000
