10
Lattice="16.28999089631971 0.0 0.0 0.0 16.28999089631971 0.0 0.0 0.0 34.28971787722196" Properties=species:S:1:pos:R:3:initial_magmoms:R:1 pbc="T T T"
Si       1.35816313       1.34009685       1.37967500       0.00000000
Si      -1.35555606      -1.37451273       1.37700040       0.00000000
Si       1.36539752      -1.38894241      -1.37033791       0.00000000
Si      -1.26162792       1.44783891      -1.57912812       0.00000000
Si      -0.20005749      -2.63171319      -2.61809377       0.00000000
Si      -2.68420104       2.69182476       0.01447713       0.00000000
Si       2.70061226       2.71471221       0.01625676       0.00000000
Si       0.00190926       2.70187569       2.74039464       0.00000000
Si      -2.72103273      -2.73311258       0.01090757       0.00000000
Si      -2.71458189      -0.01653435       2.73960597       0.00000000
