10
Lattice="16.28999089631971 0.0 0.0 0.0 16.28999089631971 0.0 0.0 0.0 34.28971787722196" Properties=species:S:1:pos:R:3:initial_magmoms:R:1 pbc="T T T"
Si      -1.35329175      -1.35400674       1.37127059       0.00000000
Si       1.36547667       1.35859985       1.36609284       0.00000000
Si       1.25089281      -1.46466471      -1.39631238       0.00000000
Si      -1.31531976       1.38513789      -1.44404712       0.00000000
Si       2.52097524       0.10139939      -2.62900134       0.00000000
Si      -2.69736336      -2.70628851      -0.01260148       0.00000000
Si      -2.70749574       2.69629718       0.00497887       0.00000000
Si       2.71816569      -2.70200424       0.00969028       0.00000000
Si      -2.70772380       0.00124763       2.72979568       0.00000000
Si       0.00689067      -2.71119180       2.72862983       0.00000000
