10
Lattice="16.28999089631971 0.0 0.0 0.0 16.28999089631971 0.0 0.0 0.0 34.28971787722196" Properties=species:S:1:pos:R:3:initial_magmoms:R:1 pbc="T T T"
Si       1.35746199       1.35664586      -1.35770214       0.00000000
Si      -1.35671265      -1.35868474      -1.35660487       0.00000000
Si      -1.35733167       1.35768842       1.35794217       0.00000000
Si       1.35791811      -1.35758692       1.35773643       0.00000000
Si      -2.71353933       0.00230341      -2.71482135       0.00000000
Si      -2.71409319       2.71471058      -0.00006858       0.00000000
Si      -2.71445157      -2.71454184       0.00075437       0.00000000
Si      -0.00052128       2.71467800       2.71434129       0.00000000
Si       2.71484253      -0.00047730       2.71420414       0.00000000
Si      -0.00228060      -2.71393911      -2.71512996       0.00000000
