10
Lattice="16.28999089631971 0.0 0.0 0.0 16.28999089631971 0.0 0.0 0.0 34.28971787722196" Properties=species:S:1:pos:R:3:initial_magmoms:R:1 pbc="T T T"
Si      -1.35467640      -1.34858394      -1.39699818       0.00000000
Si       1.36058626       1.36352187      -1.40083863       0.00000000
Si      -1.50278508       1.36392912       1.47006961       0.00000000
Si       1.30533399      -1.56861297       1.55363370       0.00000000
Si       2.70338970       2.71946889      -0.01690484       0.00000000
Si      -2.72051145       2.71629234      -0.04032473       0.00000000
Si      -2.71969695      -2.71747662      -0.00771519       0.00000000
Si       2.72402913      -2.72466866      -0.01515606       0.00000000
Si       2.33621636      -0.04165353       3.07942412       0.00000000
Si       0.00149868      -2.70932348      -2.76162684       0.00000000
