10
Lattice="16.28999089631971 0.0 0.0 0.0 16.28999089631971 0.0 0.0 0.0 34.28971787722196" Properties=species:S:1:pos:R:3:initial_magmoms:R:1 pbc="T T T"
Si      -1.76314815      -1.05757938      -1.14792237       0.00000000
Si       1.35426689       1.41867981      -1.42374901       0.00000000
Si      -1.42257312       1.24398585       1.59360524       0.00000000
Si       1.26162792      -1.44783891       1.57912812       0.00000000
Si       2.55720324       2.64745080       0.20791925       0.00000000
Si      -3.47812677       0.75189753      -1.22349695       0.00000000
Si      -2.69298135       2.67296094       0.30683485       0.00000000
Si       2.62702544      -2.83678132       0.20879021       0.00000000
Si      -2.77472457      -2.79581360       0.14598856       0.00000000
Si      -0.09697437       2.60763804       2.96305504       0.00000000
