10
Lattice="16.28999089631971 0.0 0.0 0.0 16.28999089631971 0.0 0.0 0.0 34.28971787722196" Properties=species:S:1:pos:R:3:initial_magmoms:R:1 pbc="T T T"
Si       1.27040823      -1.42897509       1.28677039       0.00000000
Si       1.11702159       1.36951659      -1.48616662       0.00000000
Si      -1.48393755       1.29811752       1.28115373       0.00000000
Si      -0.78514542      -1.92106341      -1.53033180       0.00000000
Si      -0.31104126       0.12595428      -2.97283246       0.00000000
Si       2.56668498       2.61179199      -0.06382692       0.00000000
Si       2.59600698      -0.06532290       2.65622019       0.00000000
Si      -0.11743461       2.65645917       2.65550011       0.00000000
Si       2.69298135      -2.67296094      -0.30683485       0.00000000
Si      -0.11736945      -2.77987221       2.65097386       0.00000000
