10
Lattice="16.28999089631971 0.0 0.0 0.0 16.28999089631971 0.0 0.0 0.0 34.28971787722196" Properties=species:S:1:pos:R:3:initial_magmoms:R:1 pbc="T T T"
Si       1.89476809       1.41081174      -0.02763753       0.00000000
Si      -0.17613562      -1.43516529      -1.88524974       0.00000000
Si      -2.06059770       1.13450076       0.61382058       0.00000000
Si       0.83964850      -1.40932935       1.85065140       0.00000000
Si       3.54253417      -0.25651863      -0.30932772       0.00000000
Si      -0.83234244      -3.09798333       1.56042306       0.00000000
Si       1.74574717       2.32226982       2.14996651       0.00000000
Si       1.25072665       0.30358044       3.40685682       0.00000000
Si      -0.51230258      -3.51360965      -0.81204955       0.00000000
Si      -3.74320809      -0.51028425       0.90514619       0.00000000
