10
Lattice="16.28999089631971 0.0 0.0 0.0 16.28999089631971 0.0 0.0 0.0 34.28971787722196" Properties=species:S:1:pos:R:3:initial_magmoms:R:1 pbc="T T T"
Si      -0.41107815      -1.71290979      -1.55620543       0.00000000
Si      -2.18299521       0.37038573       0.79733926       0.00000000
Si       0.49502052       2.01868938      -1.25689031       0.00000000
Si       1.33038801      -0.81865395       1.91844221       0.00000000
Si      -1.57499539       0.82795554       3.01526803       0.00000000
Si       0.78146388       1.05091677       3.25454181       0.00000000
Si       1.56323727      -2.99315718      -1.13169848       0.00000000
Si      -1.25072665      -0.30358044      -3.40685682       0.00000000
Si       0.64404144       1.10723130      -3.43449435       0.00000000
Si       0.19766286      -2.94176223       2.24676644       0.00000000
