10
Lattice="16.28999089631971 0.0 0.0 0.0 16.28999089631971 0.0 0.0 0.0 34.28971787722196" Properties=species:S:1:pos:R:3:initial_magmoms:R:1 pbc="T T T"
Si      -1.70214210      -1.01424798       1.23974544       0.00000000
Si       1.95599636       1.20624192       0.47991916       0.00000000
Si      -1.11469212       1.52013393      -1.41674907       0.00000000
Si       1.01989639      -1.96125084      -0.83601808       0.00000000
Si       0.58649117      -1.16983377      -2.98234988       0.00000000
Si       2.58021287       0.23405472       2.46567212       0.00000000
Si       3.50610389       0.28197990      -0.95507205       0.00000000
Si      -2.01067470      -3.04668612       0.03710150       0.00000000
Si       2.23087382       0.55521207      -2.86381026       0.00000000
Si       0.15908814      -3.65350491       0.52597028       0.00000000
