10
Lattice="16.28999089631971 0.0 0.0 0.0 16.28999089631971 0.0 0.0 0.0 34.28971787722196" Properties=species:S:1:pos:R:3:initial_magmoms:R:1 pbc="T T T"
Si       1.93958514       0.93768498       0.91385578       0.00000000
Si       0.14902092      -0.91145808      -2.17760404       0.00000000
Si      -1.89956713       1.47606948      -0.17206590       0.00000000
Si      -0.49502052      -2.01868938       1.25689031       0.00000000
Si      -1.74574717      -2.32226982      -2.14996651       0.00000000
Si       1.39191534       0.83069226       3.26033678       0.00000000
Si      -3.60345293       0.02375082       0.55988283       0.00000000
Si      -2.67801573      -1.64830365       2.05422957       0.00000000
Si       3.81909276      -0.26428896       0.11051582       0.00000000
Si      -0.90609867      -3.73159917      -0.29931511       0.00000000
