10
Lattice="16.28999089631971 0.0 0.0 0.0 16.28999089631971 0.0 0.0 0.0 34.28971787722196" Properties=species:S:1:pos:R:3:initial_magmoms:R:1 pbc="T T T"
Si       1.35827649      -1.35739683       1.35715350       0.00000000
Si      -1.35729909       1.35788553       1.35766785       0.00000000
Si      -1.35817875      -1.35817875      -1.35674203       0.00000000
Si       1.35785295       1.35874890      -1.35763356       0.00000000
Si      -0.00004887      -2.70967860      -2.71396411       0.00000000
Si      -2.71147050      -0.00242721      -2.71516425       0.00000000
Si      -2.71396287      -0.00052128       2.71351834       0.00000000
Si       2.71536381      -0.00244350       2.71317544       0.00000000
Si      -0.00110772       2.71427238       2.71454703       0.00000000
Si      -2.71469592      -2.71441899       0.00044577       0.00000000
