10
Lattice="16.28999089631971 0.0 0.0 0.0 16.28999089631971 0.0 0.0 0.0 34.28971787722196" Properties=species:S:1:pos:R:3:initial_magmoms:R:1 pbc="T T T"
Si       1.09733905       0.44158932       2.00759552       0.00000000
Si       1.93218689       0.14968881      -1.32200652       0.00000000
Si      -1.69751574       1.67088159      -0.02948917       0.00000000
Si      -0.66570714      -2.28301092      -0.48108501       0.00000000
Si      -0.69173856      -0.44069337       3.32212688       0.00000000
Si      -1.90835721      -1.50408828      -2.52831947       0.00000000
Si       2.65382738      -1.40561523       1.87506569       0.00000000
Si      -3.55646538       0.47457657       0.75499143       0.00000000
Si       1.65962587       2.81555743       1.77826576       0.00000000
Si       1.00944473      -3.13066107       1.75652607       0.00000000
