10
Lattice="16.28999089631971 0.0 0.0 0.0 16.28999089631971 0.0 0.0 0.0 34.28971787722196" Properties=species:S:1:pos:R:3:initial_magmoms:R:1 pbc="T T T"
Si      -1.08643941       2.00279034       0.28498200       0.00000000
Si      -0.60799981      -0.45756981      -2.21792877       0.00000000
Si       2.35645927       0.22296123       0.23927379       0.00000000
Si      -0.59864773      -1.16895411       2.01246467       0.00000000
Si       1.57499539      -0.82795554      -3.01526803       0.00000000
Si       2.90538340      -1.64660949      -1.09682582       0.00000000
Si       0.22381157       0.41827833       3.49055807       0.00000000
Si      -0.48082867       2.45757456       2.48250838       0.00000000
Si       2.44799278       0.29198196       2.66270095       0.00000000
Si      -1.89574290      -2.40424110      -1.95304055       0.00000000
