10
Lattice="16.28999089631971 0.0 0.0 0.0 16.28999089631971 0.0 0.0 0.0 34.28971787722196" Properties=species:S:1:pos:R:3:initial_magmoms:R:1 pbc="T T T"
Si       0.54892413      -1.86957072      -1.33609960       0.00000000
Si      -2.35645927      -0.22296123      -0.23927379       0.00000000
Si       0.09153351       0.06902073       2.42342717       0.00000000
Si       1.10547198       1.79846487      -1.25109535       0.00000000
Si      -0.78146388      -1.05091677      -3.25454181       0.00000000
Si      -0.34533171       3.51691326      -0.69831049       0.00000000
Si      -2.95510700      -1.39191534       1.77319088       0.00000000
Si      -0.88718598       3.35888397       1.60448538       0.00000000
Si       2.91173976       2.48334534       0.09590839       0.00000000
Si       0.63340407       2.26952280       3.02387475       0.00000000
