10
Lattice="16.28999089631971 0.0 0.0 0.0 16.28999089631971 0.0 0.0 0.0 34.28971787722196" Properties=species:S:1:pos:R:3:initial_magmoms:R:1 pbc="T T T"
Si      -1.34772057      -1.35620766      -1.37388689       0.00000000
Si       1.36630746       1.36207206      -1.37419550       0.00000000
Si       1.31031873      -1.38556224       1.43488834       0.00000000
Si      -1.49788179       1.20436857       1.45871970       0.00000000
Si      -2.70745990       2.68796403      -0.01985376       0.00000000
Si       2.70215262       2.72427444       0.00438909       0.00000000
Si       2.73142575      -2.69948106       0.00140588       0.00000000
Si      -2.72091055      -2.71456560       0.00740658       0.00000000
Si      -2.70922900       0.00252495      -2.73686965       0.00000000
Si       0.00793323      -2.71257822      -2.73697252       0.00000000
