10
Lattice="16.28999089631971 0.0 0.0 0.0 16.28999089631971 0.0 0.0 0.0 34.28971787722196" Properties=species:S:1:pos:R:3:initial_magmoms:R:1 pbc="T T T"
Si       1.35565380      -1.35637056      -1.36308563       0.00000000
Si       1.34772057       1.35620766       1.37388689       0.00000000
Si      -1.36150843       1.35873261      -1.36298276       0.00000000
Si      -1.37318999      -1.35835794       1.38129348       0.00000000
Si      -0.15016122       2.56057623       2.83260660       0.00000000
Si       2.71195920      -2.71327869      -0.00075437       0.00000000
Si      -2.71599342      -2.71430496      -0.00264031       0.00000000
Si       2.71402803       2.71827972      -0.00030861       0.00000000
Si       2.71316466       0.00076563      -2.72017055       0.00000000
Si      -2.71692572       2.71691136      -0.00740658       0.00000000
