10
Lattice="16.28999089631971 0.0 0.0 0.0 16.28999089631971 0.0 0.0 0.0 34.28971787722196" Properties=species:S:1:pos:R:3:initial_magmoms:R:1 pbc="T T T"
Si      -1.34802210       1.30355838       1.39209474       0.00000000
Si      -1.35718639      -1.32726033      -1.36143972       0.00000000
Si       1.36118914       1.38740301      -1.35979381       0.00000000
Si       1.20957811      -1.48359546       1.47857346       0.00000000
Si       2.04747055       0.24083136       2.91202163       0.00000000
Si       0.34000162       2.08349100       2.99205387       0.00000000
Si      -2.72088027      -2.66502771      -0.01059553       0.00000000
Si       2.70745990      -2.68796403       0.01985376       0.00000000
Si      -0.00176909      -2.68543908      -2.71701589       0.00000000
Si       2.71356865       0.02831202      -2.71687873       0.00000000
