10
Lattice="16.28999089631971 0.0 0.0 0.0 16.28999089631971 0.0 0.0 0.0 34.28971787722196" Properties=species:S:1:pos:R:3:initial_magmoms:R:1 pbc="T T T"
Si      -1.38324321      -1.84318092      -0.41247125       0.00000000
Si       1.97646244      -0.03917745      -1.27526961       0.00000000
Si      -1.43846631       1.91370033       0.03655286       0.00000000
Si       1.13560196      -0.88268994       1.94131346       0.00000000
Si       2.11105042      -2.34768222      -1.65619430       0.00000000
Si       0.16094846      -3.47195286      -1.01744508       0.00000000
Si      -2.30589252      -1.28748015      -2.50119629       0.00000000
Si       1.35224593       0.93300975      -3.26102257       0.00000000
Si       0.11189601       3.67233615      -0.16884267       0.00000000
Si      -0.56397024      -2.08093347       3.04835762       0.00000000
