10
Lattice="16.28999089631971 0.0 0.0 0.0 16.28999089631971 0.0 0.0 0.0 34.28971787722196" Properties=species:S:1:pos:R:3:initial_magmoms:R:1 pbc="T T T"
Si       1.34802210      -1.30355838      -1.39209474       0.00000000
Si      -1.70680318      -1.03522950       1.24564328       0.00000000
Si      -1.37181562       1.44120888      -1.35917660       0.00000000
Si       1.68802372       0.77993262       1.59995913       0.00000000
Si       0.33320071       0.48044097       3.66557289       0.00000000
Si       2.55760021      -2.78715384       0.08647872       0.00000000
Si       2.70885286       2.66004297       0.08400986       0.00000000
Si      -0.00916429      -2.63081871      -2.75353446       0.00000000
Si      -2.76741250      -2.63490750      -0.06484189       0.00000000
Si      -0.89275930      -1.62644247       3.35391347       0.00000000
