10
Lattice="16.28999089631971 0.0 0.0 0.0 16.28999089631971 0.0 0.0 0.0 34.28971787722196" Properties=species:S:1:pos:R:3:initial_magmoms:R:1 pbc="T T T"
Si      -1.15084682       2.16306765       0.12574047       0.00000000
Si      -1.22596001      -2.10688344      -0.31165942       0.00000000
Si       1.35482301       0.29949165      -2.06561376       0.00000000
Si       0.84689104      -0.26357220       2.38797158       0.00000000
Si      -2.04000389      -1.51567047      -2.41992961       0.00000000
Si       1.79971920      -2.42810595       2.12822682       0.00000000
Si      -0.33320071      -0.48044097      -3.66557289       0.00000000
Si      -2.99365307      -1.91734929       1.18165863       0.00000000
Si      -1.08529586      -0.41326101       3.70997810       0.00000000
Si       0.39515142       3.61446171       1.45566792       0.00000000
