10
Lattice="16.28999089631971 0.0 0.0 0.0 16.28999089631971 0.0 0.0 0.0 34.69518985606464" Properties=species:S:1:pos:R:3:initial_magmoms:R:1 pbc="T T T"
Si       1.02088273       1.09211418       1.85532631       0.00000000
Si      -0.44037492      -2.30591792       0.69508382       0.00000000
Si       1.41362160      -0.07048683      -2.03990483       0.00000000
Si      -2.27229945       1.11511566       0.11896987       0.00000000
Si      -1.84672320      -2.14099796      -2.08056761       0.00000000
Si      -0.24196272      -1.05974595      -3.47361496       0.00000000
Si       1.76619422       3.18958200       0.68575081       0.00000000
Si      -3.66623475      -0.77594157      -0.32616966       0.00000000
Si      -2.66967771      -2.27064355       1.41865241       0.00000000
Si      -2.07779685       2.81219157      -1.59965732       0.00000000
