10
Lattice="16.28999089631971 0.0 0.0 0.0 16.28999089631971 0.0 0.0 0.0 34.69518985606464" Properties=species:S:1:pos:R:3:initial_magmoms:R:1 pbc="T T T"
Si       1.43800952      -1.00356174      -1.63393618       0.00000000
Si       1.11901874       2.14322547       0.02300292       0.00000000
Si       0.23543611      -1.34040636       2.00992817       0.00000000
Si      -2.20901915       0.68121522      -0.76402320       0.00000000
Si       3.47950490       0.00459378      -0.96209815       0.00000000
Si      -1.68316166       2.56022015      -2.12001607       0.00000000
Si      -1.48087244      -3.05051427       1.76841482       0.00000000
Si       0.56028640      -0.53949222      -3.82837347       0.00000000
Si       2.88721679       2.16395450      -1.50827014       0.00000000
Si      -0.20822693       0.20251728       3.93343057       0.00000000
