10
Lattice="16.28999089631971 0.0 0.0 0.0 16.28999089631971 0.0 0.0 0.0 34.69518985606464" Properties=species:S:1:pos:R:3:initial_magmoms:R:1 pbc="T T T"
Si       1.35865116       1.33938009      -1.38478989       0.00000000
Si      -1.35053874      -1.37339361      -1.38753081       0.00000000
Si       1.43632188      -1.34232858       1.39283918       0.00000000
Si      -1.45912788       1.27796679       1.56811937       0.00000000
Si       0.47910519       2.12633370       2.76142640       0.00000000
Si      -0.45098865      -2.18167083       2.72558625       0.00000000
Si      -2.54139475      -0.56891196       2.72523930       0.00000000
Si      -2.70365619       2.70614367      -0.00239397       0.00000000
Si       2.72448621       2.70891297      -0.01339235       0.00000000
Si       0.00381186       2.70252729      -2.75080967       0.00000000
