10
Lattice="16.28999089631971 0.0 0.0 0.0 16.28999089631971 0.0 0.0 0.0 34.69518985606464" Properties=species:S:1:pos:R:3:initial_magmoms:R:1 pbc="T T T"
Si      -1.35428544      -1.35372242      -1.35710311       0.00000000
Si       1.36034532      -1.34929682       1.35797049       0.00000000
Si      -1.35073422       1.36065157       1.36147471       0.00000000
Si       1.36080144       1.36133575      -1.35703372       0.00000000
Si      -2.70122572      -0.02995242       2.72065953       0.00000000
Si      -2.71140860       0.00374996      -2.71483073       0.00000000
Si       0.00350235      -2.71138320      -2.71486543       0.00000000
Si      -2.71020151       2.71790179       0.00201232       0.00000000
Si       2.71792134      -2.71172529       0.00000000       0.00000000
Si      -2.71589649      -2.71423395      -0.00090208       0.00000000
