10
Lattice="16.28999089631971 0.0 0.0 0.0 16.28999089631971 0.0 0.0 0.0 34.69518985606464" Properties=species:S:1:pos:R:3:initial_magmoms:R:1 pbc="T T T"
Si       1.09271691      -1.66077365       1.30811347       0.00000000
Si      -1.96138116      -1.26453406      -0.52174656       0.00000000
Si      -0.14423166       1.68094881       1.82038824       0.00000000
Si       0.98686449       0.52105194      -2.29793310       0.00000000
Si       0.97086771      -0.75755016       3.52402710       0.00000000
Si       3.34217043      -1.78004251       0.41117292       0.00000000
Si       1.91083329       1.38049605       3.07281590       0.00000000
Si      -1.35744570      -3.55808528      -0.84344054       0.00000000
Si      -2.52247392      -0.68010750      -2.91876917       0.00000000
Si      -0.20887038       3.82425669       0.92067207       0.00000000
