10
Lattice="16.28999089631971 0.0 0.0 0.0 16.28999089631971 0.0 0.0 0.0 34.69518985606464" Properties=species:S:1:pos:R:3:initial_magmoms:R:1 pbc="T T T"
Si      -2.04493257       1.01949336      -0.70795574       0.00000000
Si       0.51357483       1.27384542       1.98824366       0.00000000
Si       1.70334756       0.14110398      -1.73035417       0.00000000
Si      -0.83087145      -2.14746997       0.78352191       0.00000000
Si      -2.95116156      -1.45252391       1.61221698       0.00000000
Si      -2.44113795       2.66748750       0.91671682       0.00000000
Si       1.21992552       3.39524325       1.16090170       0.00000000
Si       0.91147437      -1.34203536      -3.44797520       0.00000000
Si      -3.74780772      -0.60071004      -0.44645795       0.00000000
Si      -1.53424107       1.89291429       3.02708762       0.00000000
