10
Lattice="16.28999089631971 0.0 0.0 0.0 16.28999089631971 0.0 0.0 0.0 34.69518985606464" Properties=species:S:1:pos:R:3:initial_magmoms:R:1 pbc="T T T"
Si      -0.60035166       2.13278780       0.84826317       0.00000000
Si      -2.12573749      -1.07491275      -0.16511450       0.00000000
Si       0.93271653      -0.64578121       2.11855887       0.00000000
Si       1.37360538       0.16255465      -2.28568569       0.00000000
Si      -2.01577673       1.05153905       2.53358296       0.00000000
Si      -1.39421386      -3.34922793      -0.20154447       0.00000000
Si      -3.13189001       0.12430899      -1.94806661       0.00000000
Si       1.41014385       2.99755874       1.73271344       0.00000000
Si      -0.83548152      -0.66651024       3.64983193       0.00000000
Si       2.25784287       1.11476054       2.86474873       0.00000000
