10
Lattice="16.28999089631971 0.0 0.0 0.0 16.28999089631971 0.0 0.0 0.0 34.69518985606464" Properties=species:S:1:pos:R:3:initial_magmoms:R:1 pbc="T T T"
Si       1.34387613       1.35441576      -1.38336738       0.00000000
Si      -1.36583505      -1.36953288      -1.37139754       0.00000000
Si      -1.44239805       1.19775483       1.48873673       0.00000000
Si       1.88499735      -0.83465073       1.25988713       0.00000000
Si      -2.24538102      -0.58257927       2.77481875       0.00000000
Si       2.70557352       2.68389153      -0.01360052       0.00000000
Si      -2.71891503       2.67442704      -0.01682718       0.00000000
Si       2.70615996      -2.71477737      -0.01609858       0.00000000
Si      -2.72448621      -2.70891297       0.01339235       0.00000000
Si       2.70736542      -0.01272249      -2.73491926       0.00000000
