10
Lattice="16.28999089631971 0.0 0.0 0.0 16.28999089631971 0.0 0.0 0.0 34.69518985606464" Properties=species:S:1:pos:R:3:initial_magmoms:R:1 pbc="T T T"
Si      -1.58718357      -1.54043127       0.75323299       0.00000000
Si      -0.64993842       1.80361251       1.35821336       0.00000000
Si       2.07387990      -0.81267552       0.99741788       0.00000000
Si      -1.19886255       0.72861912      -1.99997064       0.00000000
Si      -1.25131635      -1.61533269      -2.64523214       0.00000000
Si      -3.47198218      -0.25252758       0.09128310       0.00000000
Si      -1.19097819      -3.18842541      -0.87143957       0.00000000
Si      -0.04792518       3.60711099      -0.02060895       0.00000000
Si       1.36752921      -2.93407335       1.82475984       0.00000000
Si      -0.68028669      -2.31500448       2.86360379       0.00000000
