10
Lattice="16.28999089631971 0.0 0.0 0.0 16.28999089631971 0.0 0.0 0.0 34.69518985606464" Properties=species:S:1:pos:R:3:initial_magmoms:R:1 pbc="T T T"
Si      -1.41697329       0.94913685       1.56804998       0.00000000
Si      -1.62188520      -1.30105461      -1.02677002       0.00000000
Si       1.18029521      -1.71804929       1.11624897       0.00000000
Si       1.41542507       1.08124875      -1.68531979       0.00000000
Si      -1.16275155       3.06602235       0.63773264       0.00000000
Si       2.01577673      -1.05153905      -2.53358296       0.00000000
Si       2.94849326      -1.69732026      -0.41502409       0.00000000
Si      -0.10996076      -2.12645180      -2.69869746       0.00000000
Si      -0.18859096       0.54016011       3.51434713       0.00000000
Si       1.81856999      -0.71442727       3.16153155       0.00000000
