10
Lattice="16.28999089631971 0.0 0.0 0.0 16.28999089631971 0.0 0.0 0.0 34.69518985606464" Properties=species:S:1:pos:R:3:initial_magmoms:R:1 pbc="T T T"
Si      -1.75984128       1.55235555       0.02622958       0.00000000
Si      -1.00646136      -2.04066459      -0.65740482       0.00000000
Si       0.88009983       0.16773813       2.21501155       0.00000000
Si       1.41408603       0.79913853      -1.75307953       0.00000000
Si       0.75452022      -3.67517061      -0.63873880       0.00000000
Si      -2.36046987      -1.49312511      -2.64290756       0.00000000
Si       3.52963575      -0.20559609      -1.52409115       0.00000000
Si      -1.02718224       3.62789703       0.82949306       0.00000000
Si      -2.67019164      -2.62241307       0.95443051       0.00000000
Si       0.56843955      -0.04321737      -3.85557452       0.00000000
