10
Lattice="16.28999089631971 0.0 0.0 0.0 16.28999089631971 0.0 0.0 0.0 34.69518985606464" Properties=species:S:1:pos:R:3:initial_magmoms:R:1 pbc="T T T"
Si       0.73265904       2.07554148       0.80326348       0.00000000
Si       1.75984128      -1.55235555      -0.02622958       0.00000000
Si      -1.90566936      -0.64889586       1.25353791       0.00000000
Si      -0.78938082       0.54718110      -2.18729008       0.00000000
Si       1.66239450       3.07641537      -1.10636083       0.00000000
Si      -1.25657802       3.13134525       1.47850165       0.00000000
Si      -3.40488693      -1.39575978      -0.35958115       0.00000000
Si       2.63994111      -1.38461742       2.18878197       0.00000000
Si       3.17392731      -0.75321702      -1.77930911       0.00000000
Si       0.75337992      -3.59302014      -0.68363440       0.00000000
