10
Lattice="16.28999089631971 0.0 0.0 0.0 16.28999089631971 0.0 0.0 0.0 34.69518985606464" Properties=species:S:1:pos:R:3:initial_magmoms:R:1 pbc="T T T"
Si      -2.28794679       0.14403618       0.47358961       0.00000000
Si       0.35841258       2.33184834       0.32165928       0.00000000
Si       0.01181025      -1.22852664      -2.10003163       0.00000000
Si       1.33299441      -0.87884550       1.89689118       0.00000000
Si       2.69687466       2.61750978       0.51671575       0.00000000
Si      -2.88996003      -1.65946230       1.85241192       0.00000000
Si       1.00991484      -3.34119303      -1.59264889       0.00000000
Si      -0.69167340       2.99255445       2.46353333       0.00000000
Si      -2.83527450       1.95752043       1.92135130       0.00000000
Si       3.69719469       1.15740450      -1.04370128       0.00000000
