10
Lattice="16.28999089631971 0.0 0.0 0.0 16.28999089631971 0.0 0.0 0.0 34.69518985606464" Properties=species:S:1:pos:R:3:initial_magmoms:R:1 pbc="T T T"
Si      -1.35672894      -1.35731538      -1.35783171       0.00000000
Si       1.36016613      -1.35394335       1.35814397       0.00000000
Si       1.35767376       1.35789642      -1.35738067       0.00000000
Si      -1.35757602       1.36242847       1.35797049       0.00000000
Si      -0.00928530       2.69415001       2.72232490       0.00000000
Si       2.71104696      -2.71772586       0.00024287       0.00000000
Si       2.71534752       2.71375177      -0.00045104       0.00000000
Si      -2.71441899       0.00034209      -2.71486543       0.00000000
Si       0.00060273      -2.71469592      -2.71465726       0.00000000
Si       0.00110772       2.71476338      -2.71469195       0.00000000
