10
Lattice="16.28999089631971 0.0 0.0 0.0 16.28999089631971 0.0 0.0 0.0 34.69518985606464" Properties=species:S:1:pos:R:3:initial_magmoms:R:1 pbc="T T T"
Si      -1.12080087      -1.29062412      -1.65895143       0.00000000
Si       1.16525628      -1.82983941       1.07860467       0.00000000
Si      -1.40506137       0.85079412       1.85605491       0.00000000
Si       1.57648104       1.47934377      -1.60552081       0.00000000
Si       2.12216346      -0.29610333       2.48320552       0.00000000
Si       0.18313218       0.55848636       3.58290487       0.00000000
Si      -2.12367843       0.45366021      -2.95710738       0.00000000
Si       0.60704685      -2.26189908      -2.96963235       0.00000000
Si      -2.31492303      -3.00205152      -0.25386485       0.00000000
Si       3.39237621       1.41615486       1.10545876       0.00000000
