10
Lattice="16.28999089631971 0.0 0.0 0.0 16.28999089631971 0.0 0.0 0.0 34.69518985606464" Properties=species:S:1:pos:R:3:initial_magmoms:R:1 pbc="T T T"
Si       1.35172791       1.34997348      -1.36027772       0.00000000
Si      -1.35861858       1.35235182       1.35769293       0.00000000
Si       1.35646830      -1.36048826       1.35790110       0.00000000
Si      -1.36922337      -1.36393142      -1.35584020       0.00000000
Si       2.52475452      -0.13432897      -2.77232763       0.00000000
Si      -2.70976005       2.71026993      -0.00510020       0.00000000
Si       0.00078192       2.71178490       2.71354701       0.00000000
Si       2.71305063      -2.71289003      -0.00516959       0.00000000
Si       2.71450044       2.71147539      -0.00228988       0.00000000
Si      -2.71285515      -2.71476338       0.00052043       0.00000000
