10
Lattice="16.28999089631971 0.0 0.0 0.0 16.28999089631971 0.0 0.0 0.0 34.69518985606464" Properties=species:S:1:pos:R:3:initial_magmoms:R:1 pbc="T T T"
Si       1.70059455       1.08752040       1.25852396       0.00000000
Si      -1.07030187      -1.67961370       1.31623597       0.00000000
Si       1.10512989      -1.41768679      -1.82734571       0.00000000
Si      -1.66905711       1.98434029      -0.09855282       0.00000000
Si      -2.02711131       0.48580527      -2.66544318       0.00000000
Si      -2.19338334      -0.14208205       2.67501139       0.00000000
Si       2.38438359       2.87504491      -0.22272698       0.00000000
Si       0.52756794       2.57182285       2.67057387       0.00000000
Si      -3.53960523       1.04995077       1.13511657       0.00000000
Si      -2.85926967      -2.65290862      -0.00542702       0.00000000
