10
Lattice="16.28999089631971 0.0 0.0 0.0 16.28999089631971 0.0 0.0 0.0 34.69518985606464" Properties=species:S:1:pos:R:3:initial_magmoms:R:1 pbc="T T T"
Si      -1.35630540      -1.35683265       1.35609695       0.00000000
Si       1.35658233      -1.35240177      -1.36307069       0.00000000
Si       1.35816246       1.35856930       1.35609695       0.00000000
Si      -1.35646830       1.36048826      -1.35790110       0.00000000
Si      -2.71433754       0.00031444       2.71337353       0.00000000
Si      -2.71508688       2.71284008      -0.00020817       0.00000000
Si       0.00158013      -2.71481592       2.71382457       0.00000000
Si      -0.00474039       2.71046174      -2.71817882       0.00000000
Si       0.00182448       2.71600034       2.71313067       0.00000000
Si       2.71562445       2.71367087      -0.00176946       0.00000000
