10
Lattice="16.28999089631971 0.0 0.0 0.0 16.28999089631971 0.0 0.0 0.0 34.69518985606464" Properties=species:S:1:pos:R:3:initial_magmoms:R:1 pbc="T T T"
Si      -1.06947108      -1.57262031      -1.33909630       0.00000000
Si       1.10666115      -1.19853675       1.80852248       0.00000000
Si       1.71960498       1.20379842      -1.28389622       0.00000000
Si      -2.64619647       0.77794524       0.74664090       0.00000000
Si      -1.14763050      -1.16965458       2.73863165       0.00000000
Si      -2.13143247       0.06996555      -2.65994291       0.00000000
Si       2.50059645       0.69252048       2.25366201       0.00000000
Si       2.69509905       2.38959639       0.53503482       0.00000000
Si      -2.95259508       1.95009219      -1.38395720       0.00000000
Si       0.56143485      -2.65362308      -2.67250258       0.00000000
