10
Lattice="16.28999089631971 0.0 0.0 0.0 16.28999089631971 0.0 0.0 0.0 34.69518985606464" Properties=species:S:1:pos:R:3:initial_magmoms:R:1 pbc="T T T"
Si      -1.00079244      -2.03612131       0.68644471       0.00000000
Si      -0.37664109       0.93398715       2.14634973       0.00000000
Si       2.25429165      -0.02888217      -0.93010917       0.00000000
Si      -1.49856597       1.94759982      -1.99199074       0.00000000
Si       1.14763050       1.16965458      -2.73863165       0.00000000
Si      -1.62841356      -1.48155921      -2.72825778       0.00000000
Si      -0.90297099      -3.24880334      -1.31876490       0.00000000
Si       3.25084869      -1.52358415       0.81471290       0.00000000
Si       0.92644488      -0.51725637       3.53166004       0.00000000
Si      -0.08052147       3.26632419       1.90858346       0.00000000
