10
Lattice="16.28999089631971 0.0 0.0 0.0 16.28999089631971 0.0 0.0 0.0 34.69518985606464" Properties=species:S:1:pos:R:3:initial_magmoms:R:1 pbc="T T T"
Si      -2.24720550       0.50276039      -0.80267367       0.00000000
Si       2.01396528      -1.00845870      -1.06458780       0.00000000
Si      -0.36074205      -1.38796683       2.03817007       0.00000000
Si       0.78908760       2.36137934       1.14053561       0.00000000
Si      -2.26053072      -1.30330770      -2.29245126       0.00000000
Si       3.49876620       0.15691554       0.37727571       0.00000000
Si      -3.49298325       0.51552523       1.20007259       0.00000000
Si      -0.87892695      -3.56883945       0.78445868       0.00000000
Si       3.04492680       2.49552749       0.24113170       0.00000000
Si      -2.27390481       2.27240336      -2.41589681       0.00000000
