10
Lattice="16.28999089631971 0.0 0.0 0.0 16.28999089631971 0.0 0.0 0.0 34.69518985606464" Properties=species:S:1:pos:R:3:initial_magmoms:R:1 pbc="T T T"
Si      -0.85571370       1.75493799      -1.38718386       0.00000000
Si      -1.67628987      -1.76360427      -0.11369620       0.00000000
Si       1.84194288      -0.94102443      -1.36789332       0.00000000
Si      -0.44367444      -0.58831335       2.75389754       0.00000000
Si      -2.09337903       1.29068928       2.28547752       0.00000000
Si       2.78814753       0.90456741       1.70034281       0.00000000
Si      -2.21741109       0.42546222      -2.75695072       0.00000000
Si       0.51417756      -2.30180958      -2.75643029       0.00000000
Si      -2.31244695       2.95083576       0.01807620       0.00000000
Si      -1.36989126      -2.93575122       2.01690190       0.00000000
