10
Lattice="16.28999089631971 0.0 0.0 0.0 16.28999089631971 0.0 0.0 0.0 34.69518985606464" Properties=species:S:1:pos:R:3:initial_magmoms:R:1 pbc="T T T"
Si      -0.31149738       1.75783761       1.39217997       0.00000000
Si      -0.52768197       0.43336287      -2.23777161       0.00000000
Si       1.57623669      -1.58239431       0.80909228       0.00000000
Si      -2.63718810      -1.00310562       1.18328011       0.00000000
Si       1.10802951       3.11438736       0.14072377       0.00000000
Si      -2.05657992       2.20563342      -1.72150689       0.00000000
Si      -1.48675572      -1.67137029      -2.74734014       0.00000000
Si       0.25793586       0.95141745       3.49861682       0.00000000
Si       1.70566074      -1.03900878       3.31134547       0.00000000
Si      -1.46005641      -3.44101326      -1.13411700       0.00000000
