10
Lattice="16.28999089631971 0.0 0.0 0.0 16.28999089631971 0.0 0.0 0.0 34.69518985606464" Properties=species:S:1:pos:R:3:initial_magmoms:R:1 pbc="T T T"
Si      -1.33591032      -1.34620560       1.37721592       0.00000000
Si       1.37539728       1.36772469       1.37426683       0.00000000
Si       1.35967743      -1.39227372      -1.39551765       0.00000000
Si      -1.47330018       1.21915989      -1.48892409       0.00000000
Si       2.04706656       0.54810963      -2.49002174       0.00000000
Si       0.26471250       2.36014407      -2.58514108       0.00000000
Si      -2.70614367       2.71178001      -0.00945097       0.00000000
Si      -2.71103067      -2.71329498      -0.00730681       0.00000000
Si      -2.50585812      -0.51463368      -2.86005590       0.00000000
Si      -2.69726562       0.00866628       2.73640074       0.00000000
