10
Lattice="16.28999089631971 0.0 0.0 0.0 16.28999089631971 0.0 0.0 0.0 34.69518985606464" Properties=species:S:1:pos:R:3:initial_magmoms:R:1 pbc="T T T"
Si      -2.11554972       1.00473462      -0.22898838       0.00000000
Si       1.18578168       0.56624040       1.97485131       0.00000000
Si       1.37888334       0.96216885      -1.78170308       0.00000000
Si      -0.75155544      -2.35012572       0.04798347       0.00000000
Si      -2.96119620       0.16237872      -2.33148337       0.00000000
Si       3.30739128       1.49244093       1.26960179       0.00000000
Si      -3.52963575       0.20559609       1.52409115       0.00000000
Si       1.53885114      -1.48317192       3.20639246       0.00000000
Si       0.44587359       2.64056013       2.77676168       0.00000000
Si      -1.83897810       3.40889427      -0.30698321       0.00000000
