10
Lattice="16.28999089631971 0.0 0.0 0.0 16.28999089631971 0.0 0.0 0.0 34.69518985606464" Properties=species:S:1:pos:R:3:initial_magmoms:R:1 pbc="T T T"
Si       2.11554972      -1.00473462       0.22898838       0.00000000
Si      -1.41408603      -0.79913853       1.75307953       0.00000000
Si      -0.84564648      -0.84235590      -2.10249499       0.00000000
Si       0.27657162       2.40415965      -0.07799483       0.00000000
Si       1.36399428      -3.35486034       0.27697186       0.00000000
Si      -3.11580459      -0.26104725      -1.96683672       0.00000000
Si      -3.17392731       0.75321702       1.77930911       0.00000000
Si       3.49443306      -0.04256577      -1.55271470       0.00000000
Si       0.65878389       3.01580028      -2.33117111       0.00000000
Si      -2.42054739      -2.83980312       1.09567471       0.00000000
