10
Lattice="16.28999089631971 0.0 0.0 0.0 16.28999089631971 0.0 0.0 0.0 34.69518985606464" Properties=species:S:1:pos:R:3:initial_magmoms:R:1 pbc="T T T"
Si      -2.27015811       0.58130865       0.13565827       0.00000000
Si       1.09889082       0.88005096      -1.92502899       0.00000000
Si       0.84564648       0.84235590       2.10249499       0.00000000
Si      -0.16765668      -2.35773315      -0.63745508       0.00000000
Si      -0.21147678      -0.39065049      -3.44051573       0.00000000
Si      -2.92890942      -1.44990774       1.21266695       0.00000000
Si      -2.53602720       1.48683717      -2.12497748       0.00000000
Si       2.96119620      -0.16237872       2.33148337       0.00000000
Si       2.99345040       2.10593862      -1.07791076       0.00000000
Si       1.93005549      -3.29836662       0.19148286       0.00000000
