10
Lattice="16.28999089631971 0.0 0.0 0.0 16.28999089631971 0.0 0.0 0.0 34.69518985606464" Properties=species:S:1:pos:R:3:initial_magmoms:R:1 pbc="T T T"
Si      -1.89455958      -1.22588766      -0.84711823       0.00000000
Si       1.70746893       0.89984331      -1.46302758       0.00000000
Si      -1.48902003       1.75221756       0.84923464       0.00000000
Si       1.34662914      -1.30614849       1.62769105       0.00000000
Si      -2.14619121       0.18546165      -2.93469427       0.00000000
Si      -1.87123230       1.14057693       3.10241092       0.00000000
Si      -2.99345040      -2.10593862       1.07791076       0.00000000
Si       3.80145069      -0.03427416      -1.09532776       0.00000000
Si       3.06655992       0.22403637       2.50256544       0.00000000
Si       1.91036088       3.22665804      -1.35137840       0.00000000
