10
Lattice="16.28999089631971 0.0 0.0 0.0 16.28999089631971 0.0 0.0 0.0 34.69518985606464" Properties=species:S:1:pos:R:3:initial_magmoms:R:1 pbc="T T T"
Si      -1.34193762      -1.35563751       1.36528077       0.00000000
Si       1.36738260       1.36438524       1.36500321       0.00000000
Si       1.38368889      -1.29389841      -1.41736869       0.00000000
Si      -1.59180993       1.17581220      -1.34444283       0.00000000
Si       2.72701116      -2.68685631       0.00396566       0.00000000
Si      -2.71489140       2.71334385       0.01433259       0.00000000
Si      -2.70459612       0.00249237       2.72734530       0.00000000
Si       2.72337849       2.70905958      -0.01934258       0.00000000
Si      -2.71345788      -2.72719035      -0.01940850       0.00000000
Si       0.01052334      -2.71443528       2.72692895       0.00000000
