10
Lattice="16.28999089631971 0.0 0.0 0.0 16.28999089631971 0.0 0.0 0.0 34.69518985606464" Properties=species:S:1:pos:R:3:initial_magmoms:R:1 pbc="T T T"
Si       1.34475579       1.32981786       1.39120850       0.00000000
Si      -1.36016613       1.35394335      -1.35814397       0.00000000
Si       1.35088083      -1.36378251      -1.35790110       0.00000000
Si      -1.35213516      -1.37262798       1.36608917       0.00000000
Si      -0.38270097       2.36861487       2.73020071       0.00000000
Si      -0.00249237       2.71183977      -2.71552464       0.00000000
Si       2.71342530      -0.00329058      -2.71507360       0.00000000
Si       2.71381626       2.71678386       0.00093677       0.00000000
Si      -2.71117728      -2.72010420      -0.00062451       0.00000000
Si      -2.71689507      -0.00337203      -2.71597567       0.00000000
