10
Lattice="16.28999089631971 0.0 0.0 0.0 16.28999089631971 0.0 0.0 0.0 34.69518985606464" Properties=species:S:1:pos:R:3:initial_magmoms:R:1 pbc="T T T"
Si      -0.38221227      -0.61164063       2.25317628       0.00000000
Si      -1.66703715       0.90608238      -1.42944262       0.00000000
Si       0.71951301       2.23632378       0.40138888       0.00000000
Si       1.48902003      -1.75221756      -0.84923464       0.00000000
Si      -0.40553955      -2.97810522      -1.69635287       0.00000000
Si       3.01132053       2.14164630       0.04843451       0.00000000
Si       1.67099562       0.00016290       3.36623329       0.00000000
Si      -2.17031670       0.81383211       3.00411939       0.00000000
Si      -0.39682440       2.61834057      -2.80718938       0.00000000
Si      -0.65878389      -3.01580028       2.33117111       0.00000000
