10
Lattice="16.28999089631971 0.0 0.0 0.0 16.28999089631971 0.0 0.0 0.0 34.69518985606464" Properties=species:S:1:pos:R:3:initial_magmoms:R:1 pbc="T T T"
Si      -0.89640612       1.13345398      -1.80415088       0.00000000
Si       0.32149944      -2.13008040      -0.90367142       0.00000000
Si       2.08380051       0.79431669       0.74879201       0.00000000
Si      -1.58498442      -0.05820417       1.74131786       0.00000000
Si      -3.06528930       1.02220192      -0.93996261       0.00000000
Si       1.98143415      -0.39374559       2.77690046       0.00000000
Si       2.25346086      -1.49387445      -2.28294477       0.00000000
Si      -0.18375120       0.29085795       3.54304007       0.00000000
Si      -2.87370261       1.84246320       1.23587805       0.00000000
Si       3.60517248      -0.07478739      -0.85631246       0.00000000
