10
Lattice="16.28999089631971 0.0 0.0 0.0 16.28999089631971 0.0 0.0 0.0 34.69518985606464" Properties=species:S:1:pos:R:3:initial_magmoms:R:1 pbc="T T T"
Si      -1.35565380      -1.35511213      -1.35724189       0.00000000
Si       1.36150349      -1.35404199       1.35852561       0.00000000
Si       1.35861185       1.36053266      -1.35713780       0.00000000
Si      -1.35527913       1.36416533       1.35859500       0.00000000
Si       0.00197109      -2.71226775      -2.71483073       0.00000000
Si       2.71219933      -2.71513479      -0.00079799       0.00000000
Si      -2.71379997       0.00352516      -2.71455317       0.00000000
Si      -2.71599912      -2.71443432       0.00000000       0.00000000
Si       2.71668723       0.00284912      -2.71472665       0.00000000
Si       0.00175932       2.71735933      -2.71493482       0.00000000
