10
Lattice="16.28999089631971 0.0 0.0 0.0 16.28999089631971 0.0 0.0 0.0 34.69518985606464" Properties=species:S:1:pos:R:3:initial_magmoms:R:1 pbc="T T T"
Si       1.39393530       1.89105723       0.44513953       0.00000000
Si      -1.10666115       1.19853675      -1.80852248       0.00000000
Si      -2.25429165       0.02888217       0.93010917       0.00000000
Si       0.99655704      -1.49470198       1.74482207       0.00000000
Si       1.81951155      -1.36505639      -1.75439795       0.00000000
Si       3.22585983      -1.52997635       1.02125348       0.00000000
Si       3.66623475       0.77594157       0.32616966       0.00000000
Si      -2.17613223      -0.37408356      -3.14761877       0.00000000
Si       0.91486269      -0.39263787       3.73695160       0.00000000
Si       0.61294383       2.40233517      -3.09241870       0.00000000
