10
Lattice="16.28999089631971 0.0 0.0 0.0 16.28999089631971 0.0 0.0 0.0 34.69518985606464" Properties=species:S:1:pos:R:3:initial_magmoms:R:1 pbc="T T T"
Si       0.84776418       1.15274556       1.81594725       0.00000000
Si      -2.06713584       0.89054172      -0.71520704       0.00000000
Si      -0.34326288      -2.34407303       0.37845534       0.00000000
Si       1.71527414       0.79377912      -1.56586418       0.00000000
Si      -1.63818756       0.34762860      -2.99423125       0.00000000
Si       2.98769093       0.12458592       1.69968361       0.00000000
Si       1.25856102       3.30252057       0.84208742       0.00000000
Si       0.48689181       1.20275586      -3.51216134       0.00000000
Si       3.38151797      -1.65228330       0.12271696       0.00000000
Si       1.75691464      -3.40513847      -0.05353471       0.00000000
