10
Lattice="16.28999089631971 0.0 0.0 0.0 16.28999089631971 0.0 0.0 0.0 34.69518985606464" Properties=species:S:1:pos:R:3:initial_magmoms:R:1 pbc="T T T"
Si       1.36046424       1.34232858      -1.39519845       0.00000000
Si      -1.36940279      -1.36044306      -1.38180610       0.00000000
Si      -0.86742295       1.78248438       1.35928891       0.00000000
Si       1.24452831      -1.42817688       1.57051334       0.00000000
Si       2.70922737       2.67719634      -0.02782556       0.00000000
Si      -2.70414230       2.70076797      -0.02067834       0.00000000
Si       2.70365619      -2.70614367       0.00239397       0.00000000
Si      -0.00883895       2.70640431      -2.74418288       0.00000000
Si      -2.72507495      -2.72867274      -0.02210085       0.00000000
Si       2.70746805      -0.00361638      -2.74841570       0.00000000
