10
Lattice="16.28999089631971 0.0 0.0 0.0 16.28999089631971 0.0 0.0 0.0 34.69518985606464" Properties=species:S:1:pos:R:3:initial_magmoms:R:1 pbc="T T T"
Si       1.34715042       1.35571896       1.38089361       0.00000000
Si      -1.38714237       1.31113323      -1.39343593       0.00000000
Si      -1.37067318      -1.35886293       1.37992215       0.00000000
Si       1.10840418      -1.52313129      -1.51099024       0.00000000
Si      -2.32435494      -0.42671655      -2.68409518       0.00000000
Si       2.68613012       2.70959715      -0.00981527       0.00000000
Si       2.67934662      -2.73298959      -0.00963486       0.00000000
Si       2.70237988      -0.00109143       2.73889880       0.00000000
Si      -2.74681980       2.70340695       0.00208171       0.00000000
Si      -0.87663006      -2.41714278      -2.87136654       0.00000000
