10
Lattice="16.28999089631971 0.0 0.0 0.0 16.28999089631971 0.0 0.0 0.0 34.69518985606464" Properties=species:S:1:pos:R:3:initial_magmoms:R:1 pbc="T T T"
Si       1.35522946      -1.35681039       1.35800519       0.00000000
Si      -1.35962856       1.35728280       1.35786640       0.00000000
Si      -1.34715042      -1.35571896      -1.38089361       0.00000000
Si       1.33897970       1.35387819      -1.39070889       0.00000000
Si       2.53764710      -0.21965436      -2.80902129       0.00000000
Si       2.71340805       0.00107514       2.71510829       0.00000000
Si      -0.00213399      -2.71414206       2.71493482       0.00000000
Si       2.71626695      -2.71292031      -0.00270623       0.00000000
Si      -0.00193851       2.71674846       2.71483073       0.00000000
Si      -2.71782360      -2.71458189      -0.00097147       0.00000000
