10
Lattice="16.28999089631971 0.0 0.0 0.0 16.28999089631971 0.0 0.0 0.0 34.69518985606464" Properties=species:S:1:pos:R:3:initial_magmoms:R:1 pbc="T T T"
Si       1.35772263      -1.35656604      -1.35703372       0.00000000
Si      -1.35997065      -1.35661491       1.35502140       0.00000000
Si       1.35614250       1.35739683       1.35817866       0.00000000
Si      -1.35791811       1.35878148      -1.35724189       0.00000000
Si      -2.70617625      -0.00472410       2.71077139       0.00000000
Si       0.00068418      -2.70976005       2.71649610       0.00000000
Si      -2.71417464      -2.71296918       0.00038165       0.00000000
Si       2.71457516      -2.71339272       0.00076329       0.00000000
Si       0.00022806       2.71485882      -2.71410213       0.00000000
Si       2.71508608       0.00076563      -2.71396335       0.00000000
