10
Lattice="16.28999089631971 0.0 0.0 0.0 16.28999089631971 0.0 0.0 0.0 34.69518985606464" Properties=species:S:1:pos:R:3:initial_magmoms:R:1 pbc="T T T"
Si      -1.34620560       1.35189081       1.35575000       0.00000000
Si      -1.35420399      -1.35635427      -1.35463975       0.00000000
Si       1.35997065       1.35661491      -1.35502140       0.00000000
Si       1.36065483      -1.35314514       1.36147471       0.00000000
Si      -0.02264310      -2.71361915       2.70993871       0.00000000
Si      -2.71171485      -0.00008145      -2.71212451       0.00000000
Si       0.00213399      -2.71378531      -2.71167347       0.00000000
Si      -2.71430496       2.71202436       0.00367769       0.00000000
Si       0.00205254       2.71539639      -2.71226329       0.00000000
Si      -2.71269225      -2.71618483       0.00253275       0.00000000
