10
Lattice="16.28999089631971 0.0 0.0 0.0 16.28999089631971 0.0 0.0 0.0 34.69518985606464" Properties=species:S:1:pos:R:3:initial_magmoms:R:1 pbc="T T T"
Si      -1.27342188       1.33638273       1.44158247       0.00000000
Si      -1.96068069      -0.86762169      -1.06236245       0.00000000
Si       1.51995525       1.02297942      -1.58359833       0.00000000
Si       1.42520267      -1.40954112       1.41576230       0.00000000
Si       2.75010942       2.53599462      -0.05667462       0.00000000
Si      -2.61674415       2.72934063       0.02024812       0.00000000
Si      -2.63234997      -0.04800663       2.80192612       0.00000000
Si       2.53191790      -1.10156238      -2.67580352       0.00000000
Si      -2.64806982      -2.80800504       0.03214164       0.00000000
Si       0.08521299       2.66857893       2.80893455       0.00000000
