10
Lattice="16.28999089631971 0.0 0.0 0.0 16.28999089631971 0.0 0.0 0.0 34.69518985606464" Properties=species:S:1:pos:R:3:initial_magmoms:R:1 pbc="T T T"
Si      -1.50718617       1.56820572       1.00227520       0.00000000
Si       0.37320667       0.91593783      -2.27669963       0.00000000
Si      -2.08852740      -1.25892378      -0.46810776       0.00000000
Si       1.75546367      -0.88153335       1.81730037       0.00000000
Si      -3.27178413       0.96974370      -0.57306077       0.00000000
Si      -2.44814544       0.73453239       2.92147540       0.00000000
Si       1.24062962      -0.86654655      -3.63598854       0.00000000
Si      -2.28303000      -2.95599969       1.25051943       0.00000000
Si       2.48515793      -2.29472343      -2.06547520       0.00000000
Si       1.69284491       0.66440394       3.60656700       0.00000000
