10
Lattice="16.28999089631971 0.0 0.0 0.0 16.28999089631971 0.0 0.0 0.0 34.69518985606464" Properties=species:S:1:pos:R:3:initial_magmoms:R:1 pbc="T T T"
Si      -0.73990809       2.07431973       0.80191037       0.00000000
Si      -1.18578168      -0.56624040      -1.97485131       0.00000000
Si       0.35306946      -2.04941232       1.23154115       0.00000000
Si       2.12160960       0.92620053      -0.70524952       0.00000000
Si       2.84346837      -1.22347674      -1.28098182       0.00000000
Si       1.53609813      -3.03186222      -0.49291484       0.00000000
Si       1.00079244       2.83765284       2.22340779       0.00000000
Si      -0.97155189       3.45445740      -1.16877751       0.00000000
Si       0.19310166       0.39592845      -3.75655439       0.00000000
Si       3.04026786       1.77802092       1.41101946       0.00000000
