10
Lattice="16.28999089631971 0.0 0.0 0.0 16.28999089631971 0.0 0.0 0.0 34.69518985606464" Properties=species:S:1:pos:R:3:initial_magmoms:R:1 pbc="T T T"
Si       1.35448954       1.35644087      -1.35762354       0.00000000
Si       1.35649792      -1.35733167       1.35692963       0.00000000
Si      -1.35762489       1.35715562       1.35758884       0.00000000
Si      -1.35796698      -1.35997065      -1.35762354       0.00000000
Si       2.71022824      -0.00286704       2.71403274       0.00000000
Si       0.00091224      -2.71422351      -2.71257554       0.00000000
Si      -0.00197109       2.71226775       2.71483073       0.00000000
Si      -2.71510317      -2.71461447       0.00000000       0.00000000
Si      -0.00065160      -2.71774215       2.71202042       0.00000000
Si       2.71465261      -2.71515204       0.00010409       0.00000000
