10
Lattice="16.28999089631971 0.0 0.0 0.0 16.28999089631971 0.0 0.0 0.0 34.69518985606464" Properties=species:S:1:pos:R:3:initial_magmoms:R:1 pbc="T T T"
Si      -1.33877736      -1.35856971      -1.38191018       0.00000000
Si       1.37419340       1.35905655      -1.38603891       0.00000000
Si       1.33460712      -1.42612434       1.46816247       0.00000000
Si      -1.64310714       1.26192114       1.38666343       0.00000000
Si       2.73956002       2.68224528      -0.02380091       0.00000000
Si      -2.72588715       2.71678986      -0.03750552       0.00000000
Si      -2.71114470      -2.73360861       0.01700065       0.00000000
Si      -2.70330921      -0.00133578      -2.74456453       0.00000000
Si       2.72257769      -2.72839581      -0.01037387       0.00000000
Si       0.01268991       2.71309854      -2.74456453       0.00000000
