10
Lattice="16.28999089631971 0.0 0.0 0.0 16.28999089631971 0.0 0.0 0.0 34.69518985606464" Properties=species:S:1:pos:R:3:initial_magmoms:R:1 pbc="T T T"
Si      -0.20289195      -2.32681473      -0.11164918       0.00000000
Si      -0.38806038       0.66720582       2.24904755       0.00000000
Si      -1.68363666       0.38257065      -1.65697380       0.00000000
Si       1.98881352       1.16747172      -0.76003325       0.00000000
Si       0.35761437       2.86911927       1.52690146       0.00000000
Si      -0.10138896       1.45386621      -3.27477672       0.00000000
Si       1.89108981      -3.26093220       0.25605064       0.00000000
Si       1.18056888       2.99876487      -1.97231856       0.00000000
Si       1.43718525      -2.83097394      -2.05343596       0.00000000
Si      -2.67986790       0.76188330       2.60200191       0.00000000
