10
Lattice="16.28999089631971 0.0 0.0 0.0 16.28999089631971 0.0 0.0 0.0 34.69518985606464" Properties=species:S:1:pos:R:3:initial_magmoms:R:1 pbc="T T T"
Si      -0.90103248      -1.06411167      -1.92929650       0.00000000
Si      -0.50495742      -0.62864739       2.24141460       0.00000000
Si       2.22226551      -0.85423131       0.16008370       0.00000000
Si      -0.13388751       2.43253683      -0.13791346       0.00000000
Si       2.14364997      -0.62771886       2.62073733       0.00000000
Si      -3.02677974      -0.12784392       1.71113302       0.00000000
Si       0.19412793      -2.89655748       2.11515874       0.00000000
Si       3.45783173       1.01820645      -0.58922874       0.00000000
Si       0.89204040       2.94546006      -2.29394315       0.00000000
Si      -0.59624658      -3.39925059      -1.71838432       0.00000000
