10
Lattice="16.28999089631971 0.0 0.0 0.0 16.28999089631971 0.0 0.0 0.0 34.69518985606464" Properties=species:S:1:pos:R:3:initial_magmoms:R:1 pbc="T T T"
Si       0.69908535      -2.26791009      -0.12625587       0.00000000
Si       0.50495742       0.62864739      -2.24141460       0.00000000
Si      -0.31211640       1.37104785       2.10658902       0.00000000
Si      -2.52182232       0.50080347      -0.53028158       0.00000000
Si       2.64860739       0.00092853       0.37932272       0.00000000
Si      -2.00363742       2.68167609       0.72342981       0.00000000
Si       2.72722293      -0.22558392      -2.08133091       0.00000000
Si      -1.26486963      -3.29082435       0.52070570       0.00000000
Si      -3.17609388      -1.62365688       0.36027505       0.00000000
Si       0.37106991       3.06118422      -2.37932806       0.00000000
