10
Lattice="16.28999089631971 0.0 0.0 0.0 16.28999089631971 0.0 0.0 0.0 34.69518985606464" Properties=species:S:1:pos:R:3:initial_magmoms:R:1 pbc="T T T"
Si       1.06367414       2.14524639       0.48722482       0.00000000
Si       0.07861554      -0.22651245      -2.46065363       0.00000000
Si       0.28452165      -1.75725117       1.81091645       0.00000000
Si      -2.64860739      -0.00092853      -0.37932272       0.00000000
Si      -1.94952204      -2.26883862      -0.50557859       0.00000000
Si      -2.14364997       0.62771886      -2.62073733       0.00000000
Si       2.75850692       1.16677125       1.87642100       0.00000000
Si       2.27352104      -2.55428829      -0.93475833       0.00000000
Si       3.43687139      -0.75880449       0.49603741       0.00000000
Si       1.51467582      -0.24423597       3.33784016       0.00000000
