10
Lattice="16.28999089631971 0.0 0.0 0.0 16.28999089631971 0.0 0.0 0.0 34.69518985606464" Properties=species:S:1:pos:R:3:initial_magmoms:R:1 pbc="T T T"
Si       1.24383109       1.41100722      -1.46141915       0.00000000
Si       1.39508374      -1.23326703       1.49478758       0.00000000
Si      -1.32172404       1.47367485       1.46658384       0.00000000
Si      -1.23015417      -1.51301520      -1.52692371       0.00000000
Si       1.92219556      -0.51456852      -2.84180275       0.00000000
Si      -1.51467582       0.24423597      -3.33784016       0.00000000
Si      -2.75010942      -2.53599462       0.05667462       0.00000000
Si      -0.45100168       2.38948236      -2.85061533       0.00000000
Si       2.58448181      -2.79966456       0.21015235       0.00000000
Si       0.05073521      -2.58087357       2.86096002       0.00000000
