10
Lattice="16.28999089631971 0.0 0.0 0.0 16.28999089631971 0.0 0.0 0.0 34.69518985606464" Properties=species:S:1:pos:R:3:initial_magmoms:R:1 pbc="T T T"
Si      -1.35723556       1.35721764      -1.35734598       0.00000000
Si       1.35671265       1.35715248       1.35859500       0.00000000
Si       1.35791811      -1.35783666      -1.35696433       0.00000000
Si      -1.35845405      -1.35966114       1.35991342       0.00000000
Si      -0.00161271       2.71062342      -2.71424091       0.00000000
Si       2.71337643      -0.00144981      -2.71413683       0.00000000
Si      -2.71508308      -2.71467963       0.00024287       0.00000000
Si      -0.00001629      -2.71555929      -2.71451848       0.00000000
Si       2.71542897       2.71469592      -0.00034695       0.00000000
Si      -2.71539025       2.71503801      -0.00052043       0.00000000
