10
Lattice="16.28999089631971 0.0 0.0 0.0 16.28999089631971 0.0 0.0 0.0 34.69518985606464" Properties=species:S:1:pos:R:3:initial_magmoms:R:1 pbc="T T T"
Si      -0.73647090       2.31269130       0.08219295       0.00000000
Si       0.33886458      -0.14698467      -2.44930830       0.00000000
Si       2.40253065      -0.71843787      -0.17909667       0.00000000
Si      -1.46722401      -0.93393828       1.83308669       0.00000000
Si       2.66839974      -1.62396639       2.08153908       0.00000000
Si      -2.12302846       2.48762961       2.06644666       0.00000000
Si       2.48516982      -1.68050898      -2.48972822       0.00000000
Si      -3.42943645       0.42744960       1.83020698       0.00000000
Si       1.24872624       3.70586097      -0.33938854       0.00000000
Si      -0.57493926      -0.23656338       3.91455637       0.00000000
