10
Lattice="16.28999089631971 0.0 0.0 0.0 16.28999089631971 0.0 0.0 0.0 34.69518985606464" Properties=species:S:1:pos:R:3:initial_magmoms:R:1 pbc="T T T"
Si      -0.21967065      -1.76889852       1.55354738       0.00000000
Si      -0.89228475      -0.69737490      -2.08146969       0.00000000
Si      -0.67036608       2.26012347       0.34632758       0.00000000
Si       2.39583546       0.17404236      -0.27416154       0.00000000
Si       0.35451927      -3.45111795       0.00398995       0.00000000
Si       1.27954692      -1.02203460       3.16666644       0.00000000
Si      -2.85449719       0.66401298      -2.08434939       0.00000000
Si      -1.54808920       2.72419299      -1.84810971       0.00000000
Si       1.37112930       3.26827899       1.01816561       0.00000000
Si      -1.14181497      -3.05082378      -1.81469822       0.00000000
