10
Lattice="16.28999089631971 0.0 0.0 0.0 16.28999089631971 0.0 0.0 0.0 34.69518985606464" Properties=species:S:1:pos:R:3:initial_magmoms:R:1 pbc="T T T"
Si       1.49921757       0.74686392       1.61311906       0.00000000
Si       0.57418992      -1.68221943      -1.54955744       0.00000000
Si       0.21967065       1.76889852      -1.55354738       0.00000000
Si      -1.79571675      -1.15522164       1.05365881       0.00000000
Si       0.75209301      -3.54268404      -0.13649095       0.00000000
Si       3.40488693       1.39575978       0.35958115       0.00000000
Si      -0.92214432      -1.28192526      -3.36824561       0.00000000
Si       2.61550611       1.94294088      -1.82770893       0.00000000
Si      -3.56637689      -1.01942820      -0.49687009       0.00000000
Si      -0.67261410       1.07152362      -3.63501707       0.00000000
