10
Lattice="16.28999089631971 0.0 0.0 0.0 16.28999089631971 0.0 0.0 0.0 34.69518985606464" Properties=species:S:1:pos:R:3:initial_magmoms:R:1 pbc="T T T"
Si      -1.34317239      -1.34109054       1.39902533       0.00000000
Si       1.37008905       1.37347506       1.38771469       0.00000000
Si       1.32172404      -1.47367485      -1.46658384       0.00000000
Si      -1.53409119       1.26477189      -1.51890769       0.00000000
Si      -2.70180726      -2.67328674       0.03167326       0.00000000
Si       2.71680779      -2.70694188       0.02820374       0.00000000
Si      -2.70543993       2.72262915       0.00836501       0.00000000
Si       0.01057895      -2.70001863       2.75519167       0.00000000
Si      -2.70205161       0.01316232       2.75397734       0.00000000
Si       2.73311408       2.72771163       0.00417383       0.00000000
