10
Lattice="16.28999089631971 0.0 0.0 0.0 16.28999089631971 0.0 0.0 0.0 34.69518985606464" Properties=species:S:1:pos:R:3:initial_magmoms:R:1 pbc="T T T"
Si      -1.21649552      -1.32551730      -1.63605259       0.00000000
Si      -2.10400730       1.07613369       0.79719182       0.00000000
Si       1.55688417       1.45326348      -1.58782625       0.00000000
Si       1.61833005      -0.90596835       2.12282638       0.00000000
Si      -1.50590366       2.74250688       2.36055795       0.00000000
Si      -2.65563557      -2.92231197      -0.49621088       0.00000000
Si       3.60352719       0.48720132       1.70124489       0.00000000
Si      -2.55110264       0.10060704      -3.10421507       0.00000000
Si       0.17147506      -2.62778877      -3.11458893       0.00000000
Si      -2.91225194       2.90742684      -0.41509348       0.00000000
