10
Lattice="10.86 0.0 0.0 0.0 10.86 0.0 0.0 0.0 10.86" Properties=species:S:1:pos:R:3:initial_magmoms:R:1 pbc="T T T"
Si       1.19530590      -1.19530590       1.57397238       0.00000000
Si       1.30277646       1.41222354      -1.30182078       0.00000000
Si      -1.41222354      -1.30277646      -1.30182078       0.00000000
Si      -1.41222354       1.41222354       1.41317922       0.00000000
Si       2.66027646       0.05472354      -2.65932078       0.00000000
Si      -0.05472354      -2.66027646      -2.65932078       0.00000000
Si       2.67398178      -2.67398178       0.00603816       0.00000000
Si      -0.05472354       2.76972354      -2.65932078       0.00000000
Si      -2.76972354       0.05472354      -2.65932078       0.00000000
Si       2.66027646       2.76972354       0.05567922       0.00000000
