10
Lattice="16.290000149 0.0 0.0 0.0 16.290000149 0.0 0.0 0.0 29.1751946751" Properties=species:S:1:pos:R:3:initial_magmoms:R:1 pbc="T T T"
Si       1.32860753      -1.35907471       1.37184683       0.00000000
Si      -1.36870699      -1.37091754      -1.32306590       0.00000000
Si      -1.36342903       1.34754139       1.35562542       0.00000000
Si       1.37104298       1.36140418      -1.34345936       0.00000000
Si      -2.69316545       0.01329264      -2.68067524       0.00000000
Si       2.68009110       0.02355534       2.69882221       0.00000000
Si       0.01292774      -2.71993481      -2.66118621       0.00000000
Si      -0.02232545       2.70840800       2.71046311       0.00000000
Si      -2.69916017       2.72437220       0.00373442       0.00000000
Si       0.02765879       2.72060921      -2.70366529       0.00000000
