10
Lattice="16.290000149 0.0 0.0 0.0 16.290000149 0.0 0.0 0.0 29.1751946751" Properties=species:S:1:pos:R:3:initial_magmoms:R:1 pbc="T T T"
Si      -0.90846073       0.89542873      -0.81136216       0.00000000
Si       0.91044811      -1.56152683       1.50549840       0.00000000
H       -2.02251755      -0.37100475       1.40297676       0.00000000
Si       1.92912698       0.58714048       1.88506768       0.00000000
Si       1.86512357      -1.97581901      -0.65457467       0.00000000
Si      -1.38825010      -1.66069221       1.85595083       0.00000000
Si      -2.23029650      -0.56728297      -2.09060692       0.00000000
Si       0.43261353       2.20905434      -2.20447771       0.00000000
Si      -2.05537448       2.32122728       0.65238653       0.00000000
Si       3.04499199       2.02637828       0.32932960       0.00000000
