10
Lattice="16.290000149 0.0 0.0 0.0 16.290000149 0.0 0.0 0.0 29.1751946751" Properties=species:S:1:pos:R:3:initial_magmoms:R:1 pbc="T T T"
Si       1.35630541       1.34035750      -1.31425791       0.00000000
Si       1.43309647      -1.32015790       1.28175383       0.00000000
Si      -1.33711579       1.44127405       1.28744299       0.00000000
Si      -1.30419370      -1.29489211      -1.47516786       0.00000000
Si      -0.04957047       2.70487307      -2.56750757       0.00000000
Si       0.05372442      -2.63749763       2.64572335       0.00000000
Si      -2.67125051      -2.64420911      -0.12460726       0.00000000
Si      -2.69988833       0.08016309       2.61774434       0.00000000
Si       2.78001885      -2.59898807      -0.17782281       0.00000000
Si       2.76757329       0.08441478       2.61931980       0.00000000
