10
Lattice="16.290000149 0.0 0.0 0.0 16.290000149 0.0 0.0 0.0 29.1751946751" Properties=species:S:1:pos:R:3:initial_magmoms:R:1 pbc="T T T"
H       -0.17831034       1.38684916       0.61212476       0.00000000
Si       0.83496025      -1.24405102       1.71286109       0.00000000
Si       1.89615602       0.01719410      -1.33759515       0.00000000
Si      -1.90091270      -0.54742383      -1.28572165       0.00000000
Si       0.64327582       1.11933478      -2.94465240       0.00000000
Si      -2.62837523       1.64307458      -0.88033232       0.00000000
Si      -0.68901814       2.66688479      -1.78619294       0.00000000
Si       1.87421339       0.60978195       2.66479518       0.00000000
Si       2.33593715      -2.27087489      -1.03563189       0.00000000
Si      -0.99707833      -2.26536887       2.65599011       0.00000000
