10
Lattice="16.290000149 0.0 0.0 0.0 16.290000149 0.0 0.0 0.0 29.1751946751" Properties=species:S:1:pos:R:3:initial_magmoms:R:1 pbc="T T T"
Si      -1.37594789      -1.34743720       1.33654484       0.00000000
Si      -1.40679301       1.33730958      -1.32653775       0.00000000
Si       1.35544204      -1.36719697      -1.35098656       0.00000000
Si       1.33877737       1.38337933       1.35886387       0.00000000
Si       2.66022218       2.71610334      -0.04904350       0.00000000
Si      -0.05615163       2.68989273      -2.69966829       0.00000000
Si      -2.71232010       0.03899673       2.68983625       0.00000000
Si       2.78200623       0.03572781       2.62953112       0.00000000
Si       2.72064179      -0.01646274      -2.69777190       0.00000000
Si      -0.05268186      -2.75459999       2.66731300       0.00000000
