10
Lattice="16.290000149 0.0 0.0 0.0 16.290000149 0.0 0.0 0.0 29.1751946751" Properties=species:S:1:pos:R:3:initial_magmoms:R:1 pbc="T T T"
Si      -1.33002964       1.31380480       1.41905813       0.00000000
Si      -1.42662934      -1.36019872      -1.27750621       0.00000000
Si       1.32853096      -1.39548286       1.36829329       0.00000000
Si       1.33530760       1.36486841      -1.40717507       0.00000000
Si       0.01780497      -2.55477701      -2.63469221       0.00000000
Si       2.63306675       2.64860253       0.09805783       0.00000000
Si      -2.60934200       2.68772622       0.03347270       0.00000000
Si      -2.74219835      -0.07656300       2.67484312       0.00000000
Si       2.66497886      -0.07058457       2.77249249       0.00000000
Si       2.71086779      -2.75191860       0.04466431       0.00000000
