10
Lattice="16.290000149 0.0 0.0 0.0 16.290000149 0.0 0.0 0.0 29.1751946751" Properties=species:S:1:pos:R:3:initial_magmoms:R:1 pbc="T T T"
Si       1.39448917       1.43435080      -1.17549777       0.00000000
Si       1.70065973      -1.59811417       0.01073647       0.00000000
Si      -0.95794975       1.27239562       1.75211632       0.00000000
Si      -1.59391135      -0.81032977      -1.56148559       0.00000000
Si      -2.07244640       1.21999069      -2.61765682       0.00000000
Si      -0.17244594       2.71611317      -2.29734235       0.00000000
Si       0.62838676      -3.35689662      -1.05386638       0.00000000
Si      -2.41103405       2.68859936       0.53743626       0.00000000
Si      -0.29927988      -2.31171392      -2.88656459       0.00000000
Si       2.35304165      -2.01805409       2.14266422       0.00000000
