10
Lattice="16.290000149 0.0 0.0 0.0 16.290000149 0.0 0.0 0.0 29.1751946751" Properties=species:S:1:pos:R:3:initial_magmoms:R:1 pbc="T T T"
Si       1.41216871       1.39036780      -1.25578499       0.00000000
Si       1.36489513      -1.34788348       1.37202188       0.00000000
Si      -1.28177345       1.34529337       1.45505448       0.00000000
Si      -1.39075388      -1.28707291      -1.43348526       0.00000000
Si      -2.69357922      -2.64091853       0.00008753       0.00000000
Si      -2.59855965       2.78111353       0.18053610       0.00000000
Si       0.13285635       2.76428922      -2.64137041       0.00000000
Si       2.74219835       0.07656300      -2.67484312       0.00000000
Si       2.71743755      -2.71596656       0.01350812       0.00000000
Si       0.01746940      -2.69550632       2.73987171       0.00000000
