10
Lattice="16.290000149 0.0 0.0 0.0 16.290000149 0.0 0.0 0.0 29.1751946751" Properties=species:S:1:pos:R:3:initial_magmoms:R:1 pbc="T T T"
Si      -2.06000084       0.70834785      -0.88044902       0.00000000
Si      -0.77895523      -1.52060635       1.68431316       0.00000000
Si       1.10951191      -0.64112554      -2.02893056       0.00000000
Si       0.93087577       2.07226721       0.79347777       0.00000000
H       -1.38508984       2.26939250       1.70330622       0.00000000
Si      -1.28650276       1.27792608      -3.03410355       0.00000000
Si      -2.66466935       2.22485564       0.88006975       0.00000000
Si      -2.32140647      -2.82734130       0.48920966       0.00000000
H        0.38058327      -3.65234835      -0.50834859       0.00000000
Si      -3.34463840      -1.28241397      -0.99811259       0.00000000
