10
Lattice="16.290000149 0.0 0.0 0.0 16.290000149 0.0 0.0 0.0 29.1751946751" Properties=species:S:1:pos:R:3:initial_magmoms:R:1 pbc="T T T"
Si      -0.51749421      -0.90872137      -2.09445805       0.00000000
Si       2.05618898       1.00888858       0.72596637       0.00000000
Si      -1.41245704       1.94984786       0.00495978       0.00000000
Si      -0.68058643      -1.76337623       1.50681128       0.00000000
H        1.44969598       1.56923200      -2.38162949       0.00000000
Si      -1.94325041      -0.33559029       2.83340476       0.00000000
H        2.85158082      -0.45278055      -1.91864833       0.00000000
Si       0.25216920       1.20285361      -3.27062685       0.00000000
Si       1.04982535       2.25046352       2.56718373       0.00000000
Si      -3.08245899       1.16608708       1.45096996       0.00000000
