10
Lattice="16.290000149 0.0 0.0 0.0 16.290000149 0.0 0.0 0.0 29.1751946751" Properties=species:S:1:pos:R:3:initial_magmoms:R:1 pbc="T T T"
Si      -1.34293132      -1.38714238       1.35874717       0.00000000
Si       1.41157738       1.36000324       1.31676406       0.00000000
Si       1.38953701      -1.34675947      -1.35399161       0.00000000
Si      -1.33374376       1.32110272      -1.43670329       0.00000000
Si      -2.68535765      -2.66968667      -0.07314221       0.00000000
H       -1.10123659       2.94694248       2.14245125       0.00000000
Si       2.70817994      -0.04826727       2.67787442       0.00000000
Si       0.08457768       2.43445907       2.94045117       0.00000000
Si       2.72877050       2.68778486      -0.12402375       0.00000000
Si       0.04753422      -2.67408497      -2.76178228       0.00000000
