10
Lattice="16.290000149 0.0 0.0 0.0 16.290000149 0.0 0.0 0.0 29.1751946751" Properties=species:S:1:pos:R:3:initial_magmoms:R:1 pbc="T T T"
Si      -1.37062432       1.34685721       1.33742010       0.00000000
Si      -1.38561112      -1.35083197      -1.32391198       0.00000000
Si       1.36327753      -1.36554184       1.33453175       0.00000000
Si       1.37122705       1.35736426      -1.33704082       0.00000000
Si       0.00566892       2.68151321       2.68478894       0.00000000
Si      -0.05616792      -2.77056250      -2.61021714       0.00000000
Si      -0.00135207      -2.71238439       2.68362193       0.00000000
Si       2.69731451      -0.00146610      -2.70407374       0.00000000
Si      -2.72153774      -0.01651806       2.69263707       0.00000000
Si       2.72093501      -0.02218698       2.70007674       0.00000000
