10
Lattice="16.290000149 0.0 0.0 0.0 16.290000149 0.0 0.0 0.0 29.1751946751" Properties=species:S:1:pos:R:3:initial_magmoms:R:1 pbc="T T T"
Si      -1.36218773      -1.35203743       1.35005296       0.00000000
Si      -1.38880396       1.35027811      -1.32840496       0.00000000
Si       1.31992984      -1.36304947      -1.38841834       0.00000000
Si       1.37028223       1.36278883       1.34941110       0.00000000
Si      -0.01137042       2.69825933      -2.67729091       0.00000000
Si       0.00599472      -2.71077005       2.69514613       0.00000000
Si       2.68695407      -2.72113049      -0.06170554       0.00000000
Si       2.68941386      -0.01884753      -2.72980626       0.00000000
Si      -2.70265204      -0.01762578      -2.72041185       0.00000000
Si      -2.72688086       0.00943191       2.70001839       0.00000000
