10
Lattice="16.290000149 0.0 0.0 0.0 16.290000149 0.0 0.0 0.0 29.1751946751" Properties=species:S:1:pos:R:3:initial_magmoms:R:1 pbc="T T T"
Si      -1.67612699       1.67988998       0.25219038       0.00000000
Si       0.35603424      -0.23630274       2.36152778       0.00000000
Si       1.63610245       1.05976225      -1.43293969       0.00000000
Si      -1.06909642      -1.69253102      -1.38205815       0.00000000
H        1.88859420      -1.64561581       0.26190572       0.00000000
H        0.53432829       2.46387881       1.37674826       0.00000000
H       -1.08574480       0.05290992       2.80251085       0.00000000
Si      -2.41500881      -0.27911286      -2.75206694       0.00000000
Si       0.33949989       2.46803276      -2.79405004       0.00000000
Si      -3.53854641       0.84123190      -1.00173031       0.00000000
