10
Lattice="16.290000149 0.0 0.0 0.0 16.290000149 0.0 0.0 0.0 29.1751946751" Properties=species:S:1:pos:R:3:initial_magmoms:R:1 pbc="T T T"
H       -0.07024248      -1.07406487      -1.06223966       0.00000000
Si       2.19583338       0.19130976       0.65883425       0.00000000
Si      -1.61808571      -0.67647484       1.56469487       0.00000000
Si      -0.44501022       2.13390857      -0.88987261       0.00000000
H       -1.88678927       2.42312123      -0.44888955       0.00000000
H        1.08754973       0.72459550      -2.98949467       0.00000000
Si      -3.15268518      -1.39849651      -0.04460887       0.00000000
H       -1.28384749      -3.24209936       0.67937358       0.00000000
Si       2.99188659      -2.06793407       0.45195294       0.00000000
Si       3.51254757      -0.08301384      -1.25214101       0.00000000
