10
Lattice="16.290000149 0.0 0.0 0.0 16.290000149 0.0 0.0 0.0 29.1751946751" Properties=species:S:1:pos:R:3:initial_magmoms:R:1 pbc="T T T"
Si      -0.74119501       1.32126562      -1.79068592       0.00000000
Si       1.99195751      -0.88617927      -0.97871108       0.00000000
Si      -1.51047397      -1.85272851      -0.06619852       0.00000000
Si      -0.63236152       1.06758145       2.04719424       0.00000000
H        2.45008118       1.39201309       1.02956344       0.00000000
H        1.23647617      -0.77602140       2.77117669       0.00000000
Si      -2.49618188       2.29234511      -0.52862535       0.00000000
Si       0.79904080      -2.03429229      -2.67011382       0.00000000
Si      -0.63746029      -0.40811337      -3.59674717       0.00000000
Si       2.56282427      -2.62448192       0.54318377       0.00000000
