10
Lattice="16.290000149 0.0 0.0 0.0 16.290000149 0.0 0.0 0.0 29.1751946751" Properties=species:S:1:pos:R:3:initial_magmoms:R:1 pbc="T T T"
Si       1.34504902       1.02105721      -1.63538636       0.00000000
Si       1.43650108      -1.62617891       0.92663336       0.00000000
Si      -1.84078631      -1.18419667      -1.00009650       0.00000000
Si      -0.10373472       1.72937900       1.80606125       0.00000000
H       -2.26281134       1.46675161       0.48576699       0.00000000
Si       2.77723326       2.28776762      -0.23144682       0.00000000
Si       0.63746029       0.40811337       3.59674717       0.00000000
Si       2.62941779      -0.47806589       2.61803609       0.00000000
Si      -2.90256852       2.31735026      -0.58963068       0.00000000
Si       0.15097572      -3.06714639       2.20914574       0.00000000
