10
Lattice="16.290000149 0.0 0.0 0.0 16.290000149 0.0 0.0 0.0 29.1751946751" Properties=species:S:1:pos:R:3:initial_magmoms:R:1 pbc="T T T"
Si       1.48959019      -1.26410401      -1.28653856       0.00000000
Si      -1.34591239       1.41341815      -1.37000879       0.00000000
Si      -1.39137778      -1.82249264       0.75096951       0.00000000
Si       1.06909642       1.69253102       1.38205815       0.00000000
H        2.95769062       0.04691520       1.64396387       0.00000000
Si      -2.46944999       2.53376291       0.38032784       0.00000000
Si       0.05740596      -2.53081442      -2.69047810       0.00000000
Si      -0.60703057       3.37242099       1.63424853       0.00000000
Si       2.78125575      -2.61491969       0.21032398       0.00000000
Si      -3.14636466      -0.85141315       2.01303008       0.00000000
