10
Lattice="16.290000149 0.0 0.0 0.0 16.290000149 0.0 0.0 0.0 29.1751946751" Properties=species:S:1:pos:R:3:initial_magmoms:R:1 pbc="T T T"
Si      -2.19583338      -0.19130976      -0.65883425       0.00000000
Si       1.31671420      -0.27432360      -1.91097525       0.00000000
Si       0.51749421       0.90872137       2.09445805       0.00000000
Si       0.79605321      -2.25924383      -0.20688131       0.00000000
Si       0.76966341       2.11157498      -1.17616880       0.00000000
H        2.07563272      -2.21470697       0.61635516       0.00000000
H       -2.26607586      -1.26537463      -1.72107391       0.00000000
H        1.96719019       2.47795337      -0.28717144       0.00000000
H        3.36907502       0.45594081       0.17580972       0.00000000
Si      -2.64084360       1.94259881      -1.54870686       0.00000000
