10
Lattice="16.290000149 0.0 0.0 0.0 16.290000149 0.0 0.0 0.0 29.1751946751" Properties=species:S:1:pos:R:3:initial_magmoms:R:1 pbc="T T T"
Si       1.28552536       1.44096748      -1.28251238       0.00000000
Si      -1.02398941       1.62253126       1.32140292       0.00000000
Si       1.52568883      -0.99808831       1.50447726       0.00000000
Si      -1.57576429      -1.31185000      -1.20300998       0.00000000
Si       2.47844207       2.58908050       0.40889035       0.00000000
Si      -1.54150642       0.37120023       3.25983203       0.00000000
Si       2.58304016       0.02510289      -2.62372526       0.00000000
H        0.65954953      -2.26510823      -2.84598189       0.00000000
Si       3.04930884       0.85077784       1.93078521       0.00000000
Si       2.51802677      -2.76267000       0.23258465       0.00000000
