10
Lattice="16.290000149 0.0 0.0 0.0 16.290000149 0.0 0.0 0.0 29.1751946751" Properties=species:S:1:pos:R:3:initial_magmoms:R:1 pbc="T T T"
Si       1.34589610      -1.34535853       1.36437798       0.00000000
Si      -1.35451351       1.32931288       1.39973831       0.00000000
Si      -1.42143283      -1.46004013      -1.22419409       0.00000000
Si       1.46020303       1.43691469      -1.21363850       0.00000000
Si      -0.99527014       0.92579329      -3.42057276       0.00000000
Si       0.04398300       2.77962626      -2.46863867       0.00000000
Si      -2.82730872      -0.09552456      -2.47744375       0.00000000
Si       2.69027723      -2.64852596      -0.05797111       0.00000000
Si      -0.08252514      -2.61369794      -2.78010430       0.00000000
Si      -0.01016496      -2.71598285       2.70938363       0.00000000
