10
Lattice="16.290000149 0.0 0.0 0.0 16.290000149 0.0 0.0 0.0 29.1751946751" Properties=species:S:1:pos:R:3:initial_magmoms:R:1 pbc="T T T"
Si      -1.36767583       1.34969167      -1.33893721       0.00000000
Si      -1.37145511      -1.34236117       1.34497647       0.00000000
Si       1.35821134      -1.35259129      -1.36230654       0.00000000
Si       1.35542575       1.36502056       1.35422501       0.00000000
Si       0.01386279       2.69270444      -2.67195185       0.00000000
Si      -0.01241298      -2.73606842       2.65325055       0.00000000
Si       2.71920827      -2.69327459       0.00169216       0.00000000
Si      -2.72354141       0.02871927       2.69316222       0.00000000
Si      -2.72544734      -2.69552261      -0.01487935       0.00000000
Si       2.71427240       0.01803303      -2.70731219       0.00000000
