10
Lattice="16.290000149 0.0 0.0 0.0 16.290000149 0.0 0.0 0.0 29.1751946751" Properties=species:S:1:pos:R:3:initial_magmoms:R:1 pbc="T T T"
Si      -1.48731774       1.07307118       1.42803825       0.00000000
Si      -1.41811782      -1.43931925      -1.16980861       0.00000000
Si       1.56151869      -1.08102070       1.36466973       0.00000000
Si       1.31575146       1.48915036      -1.26973365       0.00000000
H       -2.51989198      -0.03520269       1.63987934       0.00000000
Si       1.97860785       0.72138637       2.86331196       0.00000000
Si      -0.32857745       0.91328257       3.45098790       0.00000000
Si       0.01916681      -2.68589522      -2.53526607       0.00000000
Si      -2.71472038      -0.03104874      -2.53091896       0.00000000
Si       2.82205519       0.15623739      -2.51227601       0.00000000
