10
Lattice="16.290000149 0.0 0.0 0.0 16.290000149 0.0 0.0 0.0 29.1751946751" Properties=species:S:1:pos:R:3:initial_magmoms:R:1 pbc="T T T"
Si       1.36432009       1.36249561      -1.33777020       0.00000000
Si       1.37859013      -1.34737849       1.34573503       0.00000000
Si      -1.34500015       1.38601837       1.34240906       0.00000000
Si      -1.35542575      -1.36502056      -1.35422501       0.00000000
Si      -2.70001865       0.02989215       2.67308969       0.00000000
Si       0.00487071       2.71640314      -2.68837749       0.00000000
Si       0.04792518      -2.79033042       2.61529363       0.00000000
Si       2.71622720       0.00140094      -2.69537954       0.00000000
Si       2.69319314       2.72011237       0.04434630       0.00000000
Si      -2.72310158      -0.01532889      -2.69316222       0.00000000
