10
Lattice="16.290000149 0.0 0.0 0.0 16.290000149 0.0 0.0 0.0 29.1751946751" Properties=species:S:1:pos:R:3:initial_magmoms:R:1 pbc="T T T"
Si      -1.36705681      -1.34931700       1.35056061       0.00000000
Si       1.30419370       1.29489211       1.47516786       0.00000000
Si      -1.37114560       1.41232672      -1.30313341       0.00000000
Si       1.36410832      -1.34804638      -1.38880637       0.00000000
Si       2.66049911       2.63524961       0.16090995       0.00000000
Si       2.71298549      -2.71054199      -0.01410329       0.00000000
Si      -0.01508454      -2.66843234       2.75698004       0.00000000
Si      -2.73008999       0.02490741       2.69851295       0.00000000
Si      -2.71073747      -2.71917569      -0.01113034       0.00000000
Si      -2.78448231       0.11513772      -2.64497968       0.00000000
