10
Lattice="16.290000149 0.0 0.0 0.0 16.290000149 0.0 0.0 0.0 29.1751946751" Properties=species:S:1:pos:R:3:initial_magmoms:R:1 pbc="T T T"
H       -0.88055596       0.85359601      -0.88797623       0.00000000
Si       1.03817800      -1.48807522      -1.46599518       0.00000000
Si      -1.39861054      -1.22976469       1.42587929       0.00000000
Si       1.89472250       1.30484530       0.62860874       0.00000000
Si       1.95261716       0.34458237      -2.64271831       0.00000000
Si       0.02699253       1.84494026      -2.94937878       0.00000000
H       -2.76146454       0.42225309      -2.10989173       0.00000000
Si       2.14024538       0.78978808       2.92632512       0.00000000
Si      -0.00120546      -2.65538405       2.64934108       0.00000000
Si       2.53597835      -2.80015329      -0.17341736       0.00000000
