10
Lattice="16.290000149 0.0 0.0 0.0 16.290000149 0.0 0.0 0.0 29.1751946751" Properties=species:S:1:pos:R:3:initial_magmoms:R:1 pbc="T T T"
Si       1.32144481       1.33272401      -1.40790737       0.00000000
Si       1.44322885      -1.34765151       1.27066725       0.00000000
Si      -1.33877737      -1.38337933      -1.35886387       0.00000000
Si      -1.41156109       1.31100944       1.38742638       0.00000000
Si      -0.06437808      -2.60564417       2.47259775       0.00000000
Si       2.61208523       2.74169499      -0.06258079       0.00000000
Si      -2.75879460       2.64773427       0.01117410       0.00000000
Si      -0.04344543       2.68914345      -2.73155678       0.00000000
Si       2.74473471      -0.05413656      -2.68368028       0.00000000
Si      -2.74557038      -0.04606975      -2.68540162       0.00000000
