10
Lattice="16.290000149 0.0 0.0 0.0 16.290000149 0.0 0.0 0.0 29.1751946751" Properties=species:S:1:pos:R:3:initial_magmoms:R:1 pbc="T T T"
Si       1.36705681       1.34931700      -1.35056061       0.00000000
Si      -1.34368066      -1.36985869      -1.36169094       0.00000000
Si       1.35197227      -1.31911534       1.40641943       0.00000000
Si      -1.36303318       1.37422441       1.34795234       0.00000000
Si       2.67125051       2.64420911       0.12460726       0.00000000
Si      -2.69970914      -2.68449428       0.03620642       0.00000000
Si       0.08446365      -2.74538631      -2.65267580       0.00000000
Si      -0.00408879       2.76164373      -2.65369402       0.00000000
Si       2.77164579      -2.64974771       0.10613936       0.00000000
Si      -2.71756298      -0.01907559      -2.72235200       0.00000000
