10
Lattice="16.290000149 0.0 0.0 0.0 16.290000149 0.0 0.0 0.0 29.1751946751" Properties=species:S:1:pos:R:3:initial_magmoms:R:1 pbc="T T T"
Si      -0.84665647       1.84168226      -1.12479128       0.00000000
Si       1.71721037      -0.44025354      -1.52279929       0.00000000
Si       1.37862271       1.02835513       1.63229379       0.00000000
Si      -1.39690009      -1.73574839       0.91239586       0.00000000
H        1.12127329      -0.53998092      -2.92425894       0.00000000
H       -2.00339309      -1.17540496      -2.19520000       0.00000000
Si       2.19574541      -2.47057400      -0.46662806       0.00000000
Si       0.32477373      -3.36136008       0.81258752       0.00000000
Si       2.64432314       2.51183657       0.30817758       0.00000000
Si      -2.56694564       2.60742629       0.24868936       0.00000000
