10
Lattice="16.290000149 0.0 0.0 0.0 16.290000149 0.0 0.0 0.0 29.1751946751" Properties=species:S:1:pos:R:3:initial_magmoms:R:1 pbc="T T T"
Si      -1.19752678      -0.36637839      -0.88899736       0.00000000
H        1.40188483      -2.02201256       0.46298116       0.00000000
Si      -0.34832907       1.11900898      -2.52152455       0.00000000
Si       0.06876009       2.92141605      -1.02288233       0.00000000
Si      -1.96719019      -2.47795337       0.28717144       0.00000000
Si       2.00339309       1.17540496       2.19520000       0.00000000
Si      -1.44969598      -1.56923200       2.38162949       0.00000000
Si       0.60649300      -0.56034343       3.10759586       0.00000000
Si      -0.65047600      -2.75227698      -1.62380381       0.00000000
H        3.12466638       0.63542404      -0.72905894       0.00000000
