10
Lattice="16.290000149 0.0 0.0 0.0 16.290000149 0.0 0.0 0.0 29.1751946751" Properties=species:S:1:pos:R:3:initial_magmoms:R:1 pbc="T T T"
Si      -1.36489024       1.35641944      -1.32364941       0.00000000
Si       1.29064042       1.40897098       1.34532658       0.00000000
Si      -1.32144481      -1.33272401       1.40790737       0.00000000
Si       1.42328989      -1.38686057      -1.27577291       0.00000000
Si       2.52589484       0.01257588       2.71898227       0.00000000
Si       0.01998783       2.68610699      -2.67524865       0.00000000
Si       0.12178404      -2.68037552       2.67857462       0.00000000
Si      -2.71637381      -0.02621061      -2.65062479       0.00000000
Si      -2.66022218      -2.71610334       0.04904350       0.00000000
Si       0.06041961      -2.73256608      -2.64872840       0.00000000
