10
Lattice="16.290000149 0.0 0.0 0.0 16.290000149 0.0 0.0 0.0 29.1751946751" Properties=species:S:1:pos:R:3:initial_magmoms:R:1 pbc="T T T"
H       -1.18581427       0.51248340      -0.79799992       0.00000000
Si       1.32699970      -1.07445583      -1.62368711       0.00000000
H       -1.74374678       0.63052075       1.53333153       0.00000000
Si       1.29976282       1.67329253       1.17494344       0.00000000
Si      -0.68862718      -1.86259862       1.42255332       0.00000000
H       -0.55871443       2.17085429      -1.90362310       0.00000000
H        1.52182810      -1.07860978       2.54711120       0.00000000
Si      -3.06020685       1.09260289       0.93850766       0.00000000
H       -2.00208989       1.26816022      -2.45334212       0.00000000
Si       2.55440234       0.02966409       2.33527011       0.00000000
