10
Lattice="16.290000149 0.0 0.0 0.0 16.290000149 0.0 0.0 0.0 29.1751946751" Properties=species:S:1:pos:R:3:initial_magmoms:R:1 pbc="T T T"
Si       1.31466817      -1.26345241       1.47207237       0.00000000
Si      -0.85667482      -1.93686473      -1.03948009       0.00000000
Si      -1.43102764       1.37173204       1.28440877       0.00000000
Si       1.21819879       1.43374807      -1.44056025       0.00000000
Si       2.57294036      -2.66431097       0.10806492       0.00000000
Si       2.61265538       2.75623545      -0.07637191       0.00000000
Si      -0.05980059       2.77817808       2.59585711       0.00000000
Si      -0.09674631      -2.66722688       2.72901270       0.00000000
Si       2.75507886       0.16288371      -2.63960240       0.00000000
Si      -1.50905674      -1.51692481      -3.17140785       0.00000000
