10
Lattice="16.290000149 0.0 0.0 0.0 16.290000149 0.0 0.0 0.0 29.1751946751" Properties=species:S:1:pos:R:3:initial_magmoms:R:1 pbc="T T T"
Si       2.20465604      -0.38734362       0.79578261       0.00000000
Si       0.05074335       2.29224737       0.66151836       0.00000000
Si       0.14698467      -0.41158314      -2.35257100       0.00000000
Si      -1.52300098      -1.37846796       1.27451838       0.00000000
H       -2.16898094      -0.21445785      -1.44274255       0.00000000
H       -0.87553864       2.45618993      -1.88328799       0.00000000
Si       0.48907467       2.04071348       2.94304105       0.00000000
Si      -0.71913835       1.65657899      -3.15614338       0.00000000
Si       2.12191913       0.30517686       3.02459535       0.00000000
Si       2.44447742      -0.36313668      -2.82305019       0.00000000
