10
Lattice="16.290000149 0.0 0.0 0.0 16.290000149 0.0 0.0 0.0 29.1751946751" Properties=species:S:1:pos:R:3:initial_magmoms:R:1 pbc="T T T"
Si       1.36362125       1.33048576       1.37832372       0.00000000
Si       1.35496963      -1.38759850      -1.32992207       0.00000000
Si      -1.34162812      -1.35327547       1.38421711       0.00000000
Si      -1.34742736       1.38507355      -1.36146046       0.00000000
Si      -2.69180849       2.68824098       0.06088863       0.00000000
Si       2.71104698       2.67810860       0.01047389       0.00000000
Si      -2.69728193      -2.70275537       0.03034220       0.00000000
Si       2.70179426      -0.05883948      -2.70964037       0.00000000
Si      -2.69345378       0.05243751      -2.75006260       0.00000000
Si       0.03188512       2.67934664       2.76834670       0.00000000
