10
Lattice="16.290000149 0.0 0.0 0.0 16.290000149 0.0 0.0 0.0 29.1751946751" Properties=species:S:1:pos:R:3:initial_magmoms:R:1 pbc="T T T"
Si       1.34742573       1.34762284      -1.36784983       0.00000000
Si       1.35039051      -1.35979147       1.35868882       0.00000000
Si      -1.33173613       1.34886088       1.39002298       0.00000000
Si      -1.36362125      -1.33048576      -1.37832372       0.00000000
Si       2.67807440       2.69379587       0.04554248       0.00000000
Si      -2.70524937      -2.68376123       0.00589339       0.00000000
Si      -2.69804919       2.70614369       0.04872258       0.00000000
Si       2.69084576       0.00343719       2.72201649       0.00000000
Si      -0.00865162      -2.71808426      -2.70824580       0.00000000
Si       2.69996816      -0.02046024      -2.72636359       0.00000000
