10
Lattice="16.290000149 0.0 0.0 0.0 16.290000149 0.0 0.0 0.0 29.1751946751" Properties=species:S:1:pos:R:3:initial_magmoms:R:1 pbc="T T T"
Si      -1.33066495      -1.44295192       1.26955860       0.00000000
Si       1.35422029      -1.36230013      -1.34383864       0.00000000
Si      -1.37859013       1.34737849      -1.34573503       0.00000000
Si       1.25103943       1.37606518       1.44560172       0.00000000
Si      -2.69347007      -0.07314210       2.53272782       0.00000000
Si       2.64495845       2.70042590       0.06812408       0.00000000
Si      -0.01427004       2.70987410      -2.68350523       0.00000000
Si       2.67972131       0.01855431       2.72061608       0.00000000
Si       2.70395014      -0.00850338      -2.69981416       0.00000000
Si      -0.01480761      -2.71091666      -2.69826788       0.00000000
