10
Lattice="16.290000149 0.0 0.0 0.0 16.290000149 0.0 0.0 0.0 29.1751946751" Properties=species:S:1:pos:R:3:initial_magmoms:R:1 pbc="T T T"
Si       1.23673681      -0.24236262      -1.95482557       0.00000000
Si      -0.34632540       2.12144672       0.93007603       0.00000000
Si      -2.04967298      -0.74158597      -0.86682421       0.00000000
Si       1.21373533      -1.32559876       1.50996220       0.00000000
H        2.55319688      -0.70444477      -1.36000170       0.00000000
H       -2.52846866       0.28667142       1.71993608       0.00000000
H        0.34562493      -3.05935977      -0.25481615       0.00000000
H       -1.25128378       2.04951008       2.14834464       0.00000000
H       -3.20243484      -0.64190746       0.10958203       0.00000000
Si      -2.26844768       0.77716333      -2.68015008       0.00000000
