10
Lattice="16.290000149 0.0 0.0 0.0 16.290000149 0.0 0.0 0.0 29.1751946751" Properties=species:S:1:pos:R:3:initial_magmoms:R:1 pbc="T T T"
Si       1.44274015       1.33032286       1.20694863       0.00000000
Si      -1.23525442       1.39639510      -1.37365569       0.00000000
Si       1.52563996      -1.31282089      -1.19571618       0.00000000
Si      -1.16348068      -1.44282649       1.51238374       0.00000000
H        2.08249733       0.47972421       2.28234630       0.00000000
Si       2.50452236      -2.17122407       0.79648281       0.00000000
Si       0.75719179      -2.50401086       2.28829804       0.00000000
Si       0.01638774       2.55937079       2.49628801       0.00000000
Si      -2.40411080      -2.69295140      -0.04040764       0.00000000
Si      -2.52589484      -0.01257588      -2.71898227       0.00000000
