10
Lattice="16.290000149 0.0 0.0 0.0 16.290000149 0.0 0.0 0.0 29.1751946751" Properties=species:S:1:pos:R:3:initial_magmoms:R:1 pbc="T T T"
Si       1.36870699       1.37091754       1.32306590       0.00000000
Si      -1.32445846       1.38421018      -1.35760933       0.00000000
Si       1.38163473      -1.34901727      -1.33812030       0.00000000
Si      -1.35337321      -1.34966724       1.37219693       0.00000000
Si      -2.69154785       0.03406239      -2.69462098       0.00000000
Si      -2.68224626      -2.70728399      -0.00991957       0.00000000
Si       2.69731451       0.01184283       2.69491273       0.00000000
Si       0.00527796       2.71845893       2.67869132       0.00000000
Si       2.70687674       0.03372030      -2.69946406       0.00000000
Si      -2.68832243       2.72986193      -0.00449298       0.00000000
