10
Lattice="10.86 0.0 0.0 0.0 10.86 0.0 0.0 0.0 10.86" Properties=species:S:1:pos:R:3:initial_magmoms:R:1 pbc="T T T"
Si      -1.50350184      -1.12555212       1.40396994       0.00000000
Si       1.21149816       1.58944788       1.40396994       0.00000000
Si       1.53262836      -1.60019928      -1.11938364       0.00000000
Si      -1.50350184       1.58944788      -1.31103006       0.00000000
Si      -0.18031944      -2.49501984       2.55695442       0.00000000
Si      -0.17668134      -2.49866880      -2.66793276       0.00000000
Si       2.65497678       0.13039602      -2.53541904       0.00000000
Si      -2.86100184      -2.48305212       0.04646994       0.00000000
Si       2.63319162       0.25823994       2.71841004       0.00000000
Si       1.21756890      -3.48057570       1.11033726       0.00000000
