10
Lattice="10.86 0.0 0.0 0.0 10.86 0.0 0.0 0.0 10.86" Properties=species:S:1:pos:R:3:initial_magmoms:R:1 pbc="T T T"
Si       1.45976862       1.09388436       1.42134594       0.00000000
Si      -1.25523138      -1.62111564       1.42134594       0.00000000
Si       1.45976862      -1.62111564      -1.29365406       0.00000000
Si      -2.54853792       2.47767642       0.02078604       0.00000000
Si      -0.15753516       2.54197848      -2.59736448       0.00000000
Si       0.10226862       2.45138436       2.77884594       0.00000000
Si       2.81726862       2.45138436       0.06384594       0.00000000
Si      -2.60876748      -2.77638072      -0.12876702       0.00000000
Si      -2.61273138      -0.26361564       2.77884594       0.00000000
Si       2.81726862      -0.26361564      -2.65115406       0.00000000
