10
Lattice="10.86 0.0 0.0 0.0 10.86 0.0 0.0 0.0 10.86" Properties=species:S:1:pos:R:3:initial_magmoms:R:1 pbc="T T T"
Si      -1.09769622       1.26690588      -1.41128958       0.00000000
Si       1.61730378       1.26690588       1.30371042       0.00000000
Si       1.61730378      -1.44809412      -1.41128958       0.00000000
Si      -2.39100276      -0.06430206       2.61815052       0.00000000
Si      -2.36921760      -0.19214598      -2.63567856       0.00000000
Si      -2.45519622       2.62440588      -0.05378958       0.00000000
Si       0.15753516      -2.54197848       2.59736448       0.00000000
Si       0.25980378       2.62440588       2.66121042       0.00000000
Si       0.25980378       2.62440588      -2.76878958       0.00000000
Si       2.97480378       2.62440588      -0.05378958       0.00000000
