10
Lattice="10.86 0.0 0.0 0.0 10.86 0.0 0.0 0.0 10.86" Properties=species:S:1:pos:R:3:initial_magmoms:R:1 pbc="T T T"
Si      -1.48797204       1.16614680      -1.31040018       0.00000000
Si       1.22702796      -1.54885320      -1.31040018       0.00000000
Si       1.39818156       1.59747342       1.29089562       0.00000000
Si      -1.48797204      -1.54885320       1.40459982       0.00000000
Si      -0.03967158       2.54634420      -2.37739518       0.00000000
Si       1.42586370       3.27072792      -0.43137006       0.00000000
Si      -0.11753778       2.45087394       2.74811214       0.00000000
Si       2.58638502       0.11628888       2.65145814       0.00000000
Si      -2.84547204       2.52364680       0.04709982       0.00000000
Si       2.71267596      -0.36039996      -2.66504400       0.00000000
