10
Lattice="10.86 0.0 0.0 0.0 10.86 0.0 0.0 0.0 10.86" Properties=species:S:1:pos:R:3:initial_magmoms:R:1 pbc="T T T"
Si       1.16177022       1.31362560      -1.52817576       0.00000000
Si      -1.55322978       1.31362560       1.18682424       0.00000000
Si      -1.55322978      -1.40137440      -1.52817576       0.00000000
Si       2.51927022       2.67112560      -0.17067576       0.00000000
Si      -0.19572978       2.67112560       2.54432424       0.00000000
Si       2.46288510      -2.80510542      -0.22032768       0.00000000
Si       2.51927022      -0.04387440      -2.88567576       0.00000000
Si       2.70349926       0.07124160       2.73944586       0.00000000
Si      -0.25607880      -2.82103704       2.62658874       0.00000000
Si      -2.91072978      -0.04387440       2.54432424       0.00000000
