10
Lattice="16.28999089631971 0.0 0.0 0.0 16.28999089631971 0.0 0.0 0.0 34.642051614445585" Properties=species:S:1:pos:R:3:initial_magmoms:R:1 pbc="T T T"
Si      -0.00788436      -0.56858616       2.30560303       0.00000000
Si       0.30087630       2.33899543      -0.29847608       0.00000000
Si       1.44674748      -1.17421578      -1.48306170       0.00000000
Si      -2.08019879      -1.10249091      -0.37160550       0.00000000
Si      -2.10833651       0.37916604       2.79883684       0.00000000
Si       2.43162459       2.72136409       0.81893856       0.00000000
Si      -3.63196043      -0.02331099       1.04359239       0.00000000
Si      -1.75560588      -3.43951947       0.23470003       0.00000000
Si       0.71060238       2.82431200      -2.62385974       0.00000000
Si       2.17153845      -3.21756822      -0.54675581       0.00000000
