10
Lattice="16.28999089631971 0.0 0.0 0.0 16.28999089631971 0.0 0.0 0.0 34.642051614445585" Properties=species:S:1:pos:R:3:initial_magmoms:R:1 pbc="T T T"
Si       0.72178709      -1.74141729      -1.34691836       0.00000000
Si      -1.58157722       1.30592043      -1.08630606       0.00000000
Si      -0.69206762      -0.93152736       2.02652651       0.00000000
Si       2.07491594       1.11607677       0.30789873       0.00000000
Si       1.63876748      -3.30289524       0.13184772       0.00000000
Si       0.15173809       0.55166085       3.66242903       0.00000000
Si       2.12028359      -0.75219075      -2.96525735       0.00000000
Si       0.51184157      -3.00584709       2.24082236       0.00000000
Si      -2.39174408       2.95756353       0.42020832       0.00000000
Si      -0.67268903       2.46278736      -2.89157366       0.00000000
