10
Lattice="16.28999089631971 0.0 0.0 0.0 16.28999089631971 0.0 0.0 0.0 34.642051614445585" Properties=species:S:1:pos:R:3:initial_magmoms:R:1 pbc="T T T"
Si       1.35459495      -1.35233457       1.35935487       0.00000000
Si      -1.35420399       1.35081893       1.36368512       0.00000000
Si       1.35684297       1.35643898      -1.35696456       0.00000000
Si      -1.35868374      -1.35838849      -1.35623708       0.00000000
Si       2.69164557       0.01873350       2.68032632       0.00000000
Si      -0.00171045       2.71401500      -2.71379056       0.00000000
Si       2.71433754      -0.00142863      -2.71365199       0.00000000
Si      -0.00086337      -2.71593789      -2.71382520       0.00000000
Si      -2.71621741      -0.00071350      -2.71372127       0.00000000
Si      -2.71638682       2.71406387       0.00187067       0.00000000
