10
Lattice="16.28999089631971 0.0 0.0 0.0 16.28999089631971 0.0 0.0 0.0 34.642051614445585" Properties=species:S:1:pos:R:3:initial_magmoms:R:1 pbc="T T T"
Si      -1.35343836       1.35539316       1.35817703       0.00000000
Si       1.35685926       1.35700587      -1.35630636       0.00000000
Si      -1.35695700      -1.35852084      -1.35658350       0.00000000
Si       1.35698958      -1.35956340       1.35876595       0.00000000
Si       0.02570562      -2.70751203       2.71593836       0.00000000
Si       0.00817758       2.70770751       2.71593836       0.00000000
Si      -0.00016290       2.71406061      -2.71392912       0.00000000
Si      -2.71485068      -0.00096111      -2.71330557       0.00000000
Si       2.71448415       2.71415835       0.00058892       0.00000000
Si       2.71507059      -0.00087966      -2.71379056       0.00000000
