10
Lattice="16.28999089631971 0.0 0.0 0.0 16.28999089631971 0.0 0.0 0.0 34.642051614445585" Properties=species:S:1:pos:R:3:initial_magmoms:R:1 pbc="T T T"
Si       0.03583800      -1.38111507      -1.93524465       0.00000000
Si      -1.24004367       1.94851206      -0.68154810       0.00000000
Si       2.38886334       0.35565957       0.41681340       0.00000000
Si      -1.10889288      -0.51984648       2.12937882       0.00000000
Si       1.00251918       0.41451534      -3.27398749       0.00000000
Si       2.90123271       0.94353309      -1.88452866       0.00000000
Si      -1.45601649       3.09940056       1.36985141       0.00000000
Si      -0.38113713      -2.77179237       2.41905582       0.00000000
Si       2.41518798       2.38598001       1.48268064       0.00000000
Si      -0.28323423       0.93139704       3.84440383       0.00000000
