10
Lattice="16.28999089631971 0.0 0.0 0.0 16.28999089631971 0.0 0.0 0.0 34.642051614445585" Properties=species:S:1:pos:R:3:initial_magmoms:R:1 pbc="T T T"
Si      -0.30087630      -2.33899543       0.29847608       0.00000000
Si       0.40972608       0.48531657      -2.32538366       0.00000000
Si       2.13074829       0.38236865       1.11741464       0.00000000
Si      -1.75628354       1.67791398       0.21879932       0.00000000
Si      -0.39884436       2.69190132      -2.67024547       0.00000000
Si      -0.71599437       3.59272203       1.09489730       0.00000000
Si       1.14587118      -3.51321121      -1.18458562       0.00000000
Si      -0.30876066      -2.90758159       2.60407912       0.00000000
Si       3.70605645       1.36628628      -0.44185962       0.00000000
Si      -2.62874174       2.38740864      -1.91082199       0.00000000
