10
Lattice="16.28999089631971 0.0 0.0 0.0 16.28999089631971 0.0 0.0 0.0 34.642051614445585" Properties=species:S:1:pos:R:3:initial_magmoms:R:1 pbc="T T T"
Si       1.85678307      -0.48075048      -1.30572894       0.00000000
Si      -0.84163914      -1.93533345       1.05599425       0.00000000
Si       0.90451854       1.07307117       1.96444792       0.00000000
Si      -2.01442140       0.23267007      -1.41855816       0.00000000
Si      -2.21208426      -0.71788401       2.67578820       0.00000000
Si       2.97764910      -0.08576685       2.07391686       0.00000000
Si      -1.66729779      -3.38657697      -0.65903076       0.00000000
Si       1.83045843      -2.51107092      -2.37159618       0.00000000
Si      -0.55174230       0.54568242       3.84793732       0.00000000
Si       0.79307865      -3.40917120       1.92949407       0.00000000
