10
Lattice="16.28999089631971 0.0 0.0 0.0 16.28999089631971 0.0 0.0 0.0 34.642051614445585" Properties=species:S:1:pos:R:3:initial_magmoms:R:1 pbc="T T T"
Si      -1.40079339       1.25177247       1.38564127       0.00000000
Si       0.69965550       1.95703173      -1.18709751       0.00000000
Si      -0.98955234      -1.89723114      -1.08122823       0.00000000
Si       1.34822556      -1.44634023       1.38482372       0.00000000
Si      -0.01251072       2.60486874       2.74874441       0.00000000
Si      -2.81026772       2.57121360      -0.10078418       0.00000000
Si       2.67993306       2.72751615      -0.11405902       0.00000000
Si       2.56753206      -2.87521758      -0.04899775       0.00000000
Si       2.70329292      -0.11603367       2.74940260       0.00000000
Si      -2.72703397      -0.11157021       2.75092686       0.00000000
