10
Lattice="16.28999089631971 0.0 0.0 0.0 16.28999089631971 0.0 0.0 0.0 34.642051614445585" Properties=species:S:1:pos:R:3:initial_magmoms:R:1 pbc="T T T"
Si       1.47799170      -1.07708991      -1.39929717       0.00000000
Si      -0.80857044       2.20658476      -0.34486182       0.00000000
Si      -0.40972608      -0.48531657       2.32538366       0.00000000
Si       0.01827738       0.15727018      -2.84879071       0.00000000
Si       3.18857202      -0.70901573       0.12336041       0.00000000
Si      -2.16600962       1.19259742       2.54418298       0.00000000
Si      -3.03846781       1.90209208       0.41456166       0.00000000
Si      -1.28679597       2.24001184      -2.70374436       0.00000000
Si       1.72102221      -0.10294791       3.44279830       0.00000000
Si       0.23495067       3.57080710       1.46792312       0.00000000
