10
Lattice="16.28999089631971 0.0 0.0 0.0 16.28999089631971 0.0 0.0 0.0 34.642051614445585" Properties=species:S:1:pos:R:3:initial_magmoms:R:1 pbc="T T T"
Si      -1.35617508       1.35492075       1.35672207       0.00000000
Si       1.35651717      -1.35835794       1.35686064       0.00000000
Si      -1.36588392      -1.34012943      -1.37448306       0.00000000
Si       1.35159759       1.35316143      -1.38828792       0.00000000
Si       2.71184517       2.71338687      -0.00311779       0.00000000
Si       0.00048870       2.71302687       2.71427554       0.00000000
Si       2.71257822      -2.71526607      -0.00471132       0.00000000
Si       2.71427238      -0.00128691       2.71403305       0.00000000
Si      -2.71471221      -0.00148239       2.71410233       0.00000000
Si      -2.71508688      -2.71461447      -0.00450347       0.00000000
