10
Lattice="16.28999089631971 0.0 0.0 0.0 16.28999089631971 0.0 0.0 0.0 34.642051614445585" Properties=species:S:1:pos:R:3:initial_magmoms:R:1 pbc="T T T"
Si       1.35666378       1.35802124      -1.35682599       0.00000000
Si       1.35524655      -1.35995436       1.35734562       0.00000000
Si      -1.35824391      -1.35777150      -1.35720706       0.00000000
Si      -1.35980775       1.36374993       1.35904309       0.00000000
Si      -0.02275713       2.73481800       2.68001454       0.00000000
Si       2.71371852       0.00034209      -2.71420626       0.00000000
Si       2.71388142      -2.71453302       0.00006928       0.00000000
Si      -0.00089595      -2.71423980      -2.71437947       0.00000000
Si      -0.00006516       2.71465587      -2.71396377       0.00000000
Si       2.71337643       2.71547525       0.00090069       0.00000000
