10
Lattice="16.28999089631971 0.0 0.0 0.0 16.28999089631971 0.0 0.0 0.0 34.642051614445585" Properties=species:S:1:pos:R:3:initial_magmoms:R:1 pbc="T T T"
Si       1.66915485      -0.36097893       1.54365068       0.00000000
Si       0.07561818       1.56660767      -1.73837376       0.00000000
Si      -2.17339551       0.43886726       0.85389241       0.00000000
Si      -0.92370816      -2.22611877      -0.45720605       0.00000000
Si      -0.82927503      -0.15493452      -3.20453013       0.00000000
Si      -2.50411509      -1.89621369       1.38488607       0.00000000
Si      -2.47171428      -1.33310097      -1.99475973       0.00000000
Si       3.55659570      -1.18826658       0.48983888       0.00000000
Si       2.00813346       1.53349010       2.83957592       0.00000000
Si      -2.06563716       2.02885271       2.61405603       0.00000000
