10
Lattice="16.28999089631971 0.0 0.0 0.0 16.28999089631971 0.0 0.0 0.0 34.642051614445585" Properties=species:S:1:pos:R:3:initial_magmoms:R:1 pbc="T T T"
Si      -0.47244258      -2.13126957       0.95373086       0.00000000
Si       0.88102836       1.03540869       1.99243871       0.00000000
Si       1.81934865       0.00474039      -1.60288862       0.00000000
Si      -1.77621273       1.49154498      -1.27403144       0.00000000
Si      -2.51579502      -1.55075913       1.97837403       0.00000000
Si       0.61216191       0.50156910      -3.70008496       0.00000000
Si      -1.74988809       3.52186542      -0.20816420       0.00000000
Si      -0.79247592       1.60937055       3.59155135       0.00000000
Si      -0.81142119      -4.02573860      -0.34219438       0.00000000
Si       1.01599101      -3.00782307       2.66331706       0.00000000
