10
Lattice="16.28999089631971 0.0 0.0 0.0 16.28999089631971 0.0 0.0 0.0 34.642051614445585" Properties=species:S:1:pos:R:3:initial_magmoms:R:1 pbc="T T T"
Si       2.03788112      -0.91330604       0.78090156       0.00000000
Si       0.15538591       2.36003004      -0.08071603       0.00000000
Si      -1.60134465      -0.23814695       1.75555623       0.00000000
Si      -1.08161220      -0.78749837      -2.06508313       0.00000000
Si      -3.06653241      -1.44256814      -1.05966631       0.00000000
Si       3.37559963      -0.53071910      -1.12815368       0.00000000
Si      -3.55932120       0.26756162       0.56923851       0.00000000
Si      -1.06426335       2.78391213      -2.06515242       0.00000000
Si       1.46186998      -3.19340105       1.17713757       0.00000000
Si      -1.11466461       1.35042960       3.33984206       0.00000000
