10
Lattice="16.28999089631971 0.0 0.0 0.0 16.28999089631971 0.0 0.0 0.0 34.642051614445585" Properties=species:S:1:pos:R:3:initial_magmoms:R:1 pbc="T T T"
Si       1.35610992      -1.35840681      -1.35679135       0.00000000
Si       1.35698958       1.35790182       1.35783061       0.00000000
Si      -1.35796698      -1.35799956       1.35762276       0.00000000
Si      -1.35713619       1.35985662      -1.35952808       0.00000000
Si      -0.00861741      -2.68196931      -2.72159888       0.00000000
Si       2.69265555       0.01101204      -2.73189797       0.00000000
Si      -0.00467523       2.72096757      -2.70437831       0.00000000
Si       2.71326240       2.71593396       0.00034642       0.00000000
Si      -2.71459818      -0.00070047       2.71486446       0.00000000
Si       0.00032580       2.71476108       2.71496839       0.00000000
