10
Lattice="16.28999089631971 0.0 0.0 0.0 16.28999089631971 0.0 0.0 0.0 34.642051614445585" Properties=species:S:1:pos:R:3:initial_magmoms:R:1 pbc="T T T"
Si      -0.02632464      -2.03032044      -1.06586724       0.00000000
Si      -1.85678307       0.48075048       1.30572894       0.00000000
Si       2.06767341       1.10622132       0.21069308       0.00000000
Si       1.12086603       0.39498363       3.37964580       0.00000000
Si       0.48604473      -1.44244692      -3.36720930       0.00000000
Si      -2.41518798      -2.38598001      -1.48268064       0.00000000
Si      -0.95226453       1.55382165       3.27017686       0.00000000
Si      -2.69842221      -1.45458297       2.36172319       0.00000000
Si      -3.87120447       0.71342055      -0.11282923       0.00000000
Si       1.74988809      -3.52186542       0.20816420       0.00000000
