10
Lattice="16.28999089631971 0.0 0.0 0.0 16.28999089631971 0.0 0.0 0.0 34.642051614445585" Properties=species:S:1:pos:R:3:initial_magmoms:R:1 pbc="T T T"
Si      -0.16345386      -2.30747850       0.42006975       0.00000000
Si       1.90231362       1.19350314       0.70115552       0.00000000
Si      -2.07313056       1.15883802      -0.10946894       0.00000000
Si       2.69728191      -0.44403282      -1.78850084       0.00000000
Si       0.94680738       0.71123769      -3.16895273       0.00000000
Si       1.51005042      -2.88144036      -1.17904289       0.00000000
Si       0.85753818       2.71987614       2.16693082       0.00000000
Si      -1.12086603      -0.39498363      -3.37964580       0.00000000
Si      -2.97764910       0.08576685      -2.07391686       0.00000000
Si       0.37507725      -2.69992089       2.64242789       0.00000000
