10
Lattice="16.28999089631971 0.0 0.0 0.0 16.28999089631971 0.0 0.0 0.0 34.642051614445585" Properties=species:S:1:pos:R:3:initial_magmoms:R:1 pbc="T T T"
Si       0.31068288       2.33350992      -0.26282939       0.00000000
Si       2.07313056      -1.15883802       0.10946894       0.00000000
Si      -0.90451854      -1.07307117      -1.96444792       0.00000000
Si      -1.45626084      -0.52738875       1.88348940       0.00000000
Si      -1.74615768      -3.00840462      -0.90845367       0.00000000
Si      -3.11660280      -1.79095518       0.71134029       0.00000000
Si       0.95226453      -1.55382165      -3.27017686       0.00000000
Si       1.12892958       3.07467234       1.87576422       0.00000000
Si      -1.78826733       3.30304185      -0.78561289       0.00000000
Si      -2.09515464       1.54852740       2.94762454       0.00000000
