10
Lattice="16.28999089631971 0.0 0.0 0.0 16.28999089631971 0.0 0.0 0.0 34.642051614445585" Properties=species:S:1:pos:R:3:initial_magmoms:R:1 pbc="T T T"
Si       1.49265270       1.44005229       1.04951618       0.00000000
Si       1.04477544      -1.52637300      -1.46577531       0.00000000
Si      -1.80173916       1.51363422      -0.40063555       0.00000000
Si       0.01881495      -1.43672913       1.90846633       0.00000000
Si       2.14534413      -0.34169904       2.38126132       0.00000000
Si      -3.01322646       0.82557720       1.56232276       0.00000000
Si      -0.85753818      -2.71987614      -2.16693082       0.00000000
Si      -1.91464515      -0.69729345       3.09332909       0.00000000
Si      -2.61998586       0.77247180      -2.53922916       0.00000000
Si       3.01495320       2.13597738      -0.55316459       0.00000000
