10
Lattice="16.28999089631971 0.0 0.0 0.0 16.28999089631971 0.0 0.0 0.0 34.642051614445585" Properties=species:S:1:pos:R:3:initial_magmoms:R:1 pbc="T T T"
Si       0.02057427      -0.90391581       2.24203483       0.00000000
Si       1.20747996       2.09849409      -0.02819865       0.00000000
Si      -0.27606663      -1.88449236      -1.57534818       0.00000000
Si      -1.24576146      -0.35955288      -3.14456471       0.00000000
Si      -0.80140284       3.20346108      -1.37199922       0.00000000
Si      -0.28038348       1.79062938      -3.17799431       0.00000000
Si       2.38769046       1.99764270       2.29316653       0.00000000
Si       0.72200538       0.96645312       3.71783352       0.00000000
Si       1.71406638      -2.79350694       2.27033741       0.00000000
Si       1.73402163      -2.99375991      -2.09785453       0.00000000
