10
Lattice="16.28999089631971 0.0 0.0 0.0 16.28999089631971 0.0 0.0 0.0 34.642051614445585" Properties=species:S:1:pos:R:3:initial_magmoms:R:1 pbc="T T T"
Si       1.56695139       1.23795855       1.19064798       0.00000000
Si      -1.31132871       1.29981168      -1.47748433       0.00000000
Si       1.39181760      -1.42325730      -1.44973603       0.00000000
Si      -1.45013580      -1.18387575       1.64466696       0.00000000
Si       1.94742063      -0.61577829       2.72518780       0.00000000
Si      -2.55783951      -2.71334385       0.15318724       0.00000000
Si      -2.77363314       0.68232294       2.51993353       0.00000000
Si      -2.67920001       2.75350719      -0.22739055       0.00000000
Si       0.04554684       2.65057848      -2.83867522       0.00000000
Si      -2.67066405      -0.06660981      -2.84044197       0.00000000
