10
Lattice="16.28999089631971 0.0 0.0 0.0 16.28999089631971 0.0 0.0 0.0 34.642051614445585" Properties=species:S:1:pos:R:3:initial_magmoms:R:1 pbc="T T T"
Si       0.52101936      -1.41283170      -1.80599509       0.00000000
Si       0.14970510       2.15435643      -0.94687173       0.00000000
Si      -2.25702837      -0.50399631       0.70874213       0.00000000
Si       2.00888280      -1.10496699       1.34380058       0.00000000
Si       0.80140284      -3.20346108       1.37199922       0.00000000
Si      -0.40692420      -0.25404255      -3.62993476       0.00000000
Si       0.50767785       3.41528551       1.25283050       0.00000000
Si       3.67862409      -0.26106354      -0.16091242       0.00000000
Si       2.84125293      -1.12896216      -2.18937889       0.00000000
Si      -0.93809223       2.03925911      -3.10337529       0.00000000
