10
Lattice="16.28999089631971 0.0 0.0 0.0 16.28999089631971 0.0 0.0 0.0 34.642051614445585" Properties=species:S:1:pos:R:3:initial_magmoms:R:1 pbc="T T T"
Si       0.20522142      -0.54109027      -2.24089165       0.00000000
Si      -0.44657406      -2.09428217       0.99311889       0.00000000
Si       1.83523044       1.28723580       0.87564763       0.00000000
Si      -1.75440042       1.90676079       0.01351041       0.00000000
Si       0.39628683       3.23338581       0.40067019       0.00000000
Si      -0.42940440      -1.50840676       3.26446092       0.00000000
Si       1.56113001       0.92690100      -3.38162040       0.00000000
Si      -2.49772941      -2.95100585       0.22039286       0.00000000
Si      -1.36010097      -1.94227201      -3.32241710       0.00000000
Si       2.70768863       0.57774114       3.00526894       0.00000000
