10
Lattice="16.28999089631971 0.0 0.0 0.0 16.28999089631971 0.0 0.0 0.0 34.642051614445585" Properties=species:S:1:pos:R:3:initial_magmoms:R:1 pbc="T T T"
Si       1.32991285      -1.35358497       1.34426478       0.00000000
Si      -1.41017643       1.36858806       1.30766197       0.00000000
Si      -0.81300132      -1.88748972      -1.18740791       0.00000000
Si       1.78934640       0.92297511      -1.26840696       0.00000000
Si       2.68944546      -2.59592879      -0.09301050       0.00000000
Si       2.68256782       2.65318488       0.03092498       0.00000000
Si       2.68548210      -0.00164529       2.68799953       0.00000000
Si      -0.02840976      -2.71378857       2.67920045       0.00000000
Si      -0.03262887       2.71808424       2.67736442       0.00000000
Si      -2.74672206      -0.00083079       2.68276858       0.00000000
