10
Lattice="16.28999089631971 0.0 0.0 0.0 16.28999089631971 0.0 0.0 0.0 34.642051614445585" Properties=species:S:1:pos:R:3:initial_magmoms:R:1 pbc="T T T"
Si       0.69641609      -1.43749476      -1.72898576       0.00000000
Si       2.00776598       1.35220032      -0.02580834       0.00000000
Si       0.49836390      -1.25506305       2.01531291       0.00000000
Si      -2.29861674       0.89404407      -0.36353389       0.00000000
Si       1.70535842       0.24478983      -3.02189714       0.00000000
Si       1.39158532       0.47514672       3.31464485       0.00000000
Si      -3.50378352      -1.16328519      -0.47362639       0.00000000
Si       2.77610012      -2.42971866      -0.71923868       0.00000000
Si       3.95495855      -0.35056080      -0.36038146       0.00000000
Si      -0.86245776      -2.83646367      -2.74219705       0.00000000
