10
Lattice="16.28999089631971 0.0 0.0 0.0 16.28999089631971 0.0 0.0 0.0 34.642051614445585" Properties=species:S:1:pos:R:3:initial_magmoms:R:1 pbc="T T T"
Si       1.35645520       1.35796698      -1.35654886       0.00000000
Si      -1.35801585      -1.35676152      -1.35692992       0.00000000
Si      -1.35646830       1.35619137       1.36229944       0.00000000
Si       1.35544353      -1.35798327       1.36184909       0.00000000
Si      -2.71410948      -2.71365336      -0.00006928       0.00000000
Si      -2.71454931      -0.00009774      -2.71361735       0.00000000
Si      -0.00050499      -2.71445157      -2.71385984       0.00000000
Si       2.71467704       0.00050499      -2.71420626       0.00000000
Si      -0.00013032       2.71487511      -2.71406769       0.00000000
Si       2.71525371      -2.71423980       0.00065820       0.00000000
