10
Lattice="16.28999089631971 0.0 0.0 0.0 16.28999089631971 0.0 0.0 0.0 34.642051614445585" Properties=species:S:1:pos:R:3:initial_magmoms:R:1 pbc="T T T"
Si      -1.42003188      -1.28067093      -1.27794600       0.00000000
Si       1.35668007       1.49635053      -1.27947025       0.00000000
Si       0.39750858      -1.55442438       1.89291204       0.00000000
Si      -2.10790971       1.03772187       1.45843119       0.00000000
Si      -0.37305729       0.43015374       2.98105413       0.00000000
Si       2.64059175       2.33838063       0.57672120       0.00000000
Si       1.15092108       2.30795091       2.59195439       0.00000000
Si       0.07242534      -2.49214194      -2.71191988       0.00000000
Si      -2.57434128      -2.69112429       0.25139751       0.00000000
Si      -2.66351274       0.23024286      -2.71649264       0.00000000
