10
Lattice="16.28999089631971 0.0 0.0 0.0 16.28999089631971 0.0 0.0 0.0 34.642051614445585" Properties=species:S:1:pos:R:3:initial_magmoms:R:1 pbc="T T T"
Si      -0.77056587       1.98457812       1.08814209       0.00000000
Si       1.92539070      -0.28518903       1.39964359       0.00000000
Si      -0.39750858       1.55442438      -1.89291204       0.00000000
Si      -1.36000323      -2.09104956      -0.11244816       0.00000000
Si      -2.97184986      -1.13669991      -1.64151453       0.00000000
Si      -2.50541829       2.59214625      -0.43448085       0.00000000
Si      -1.81754046       0.27375345      -3.17085804       0.00000000
Si       3.81152510       0.19841220       0.06221716       0.00000000
Si       2.59861079      -2.53307871       1.32298069       0.00000000
Si       3.20123654      -1.39175244      -1.69268087       0.00000000
