10
Lattice="16.28999089631971 0.0 0.0 0.0 16.28999089631971 0.0 0.0 0.0 34.642051614445585" Properties=species:S:1:pos:R:3:initial_magmoms:R:1 pbc="T T T"
Si      -1.19957931      -0.96510105       1.73307353       0.00000000
Si      -0.93056625       2.00725380      -0.78388078       0.00000000
Si       1.79137872       0.98000640       1.20914685       0.00000000
Si      -0.40461102      -2.60263701      -0.75658283       0.00000000
Si      -2.15508555      -1.44736650      -2.13703472       0.00000000
Si       0.57875112       2.41798986      -2.75473748       0.00000000
Si      -0.35748405       3.66360471       0.81298012       0.00000000
Si       3.50836820       1.43382951      -0.43631688       0.00000000
Si       0.19621305      -2.48331276       2.93844439       0.00000000
Si       0.77059845       2.69724933       2.64568424       0.00000000
