10
Lattice="16.28999089631971 0.0 0.0 0.0 16.28999089631971 0.0 0.0 0.0 34.642051614445585" Properties=species:S:1:pos:R:3:initial_magmoms:R:1 pbc="T T T"
Si       1.13825465      -1.32085836       1.51482848       0.00000000
Si      -1.79137872      -0.98000640      -1.20914685       0.00000000
Si       1.71698948       0.45382311      -1.64546373       0.00000000
Si      -1.02078027       1.71724293       1.43653740       0.00000000
Si      -2.14886277       2.68359831      -0.39616672       0.00000000
Si      -2.72194497       1.02724740      -1.99302763       0.00000000
Si      -2.99095803      -1.94510745       0.52392668       0.00000000
Si       2.75873498       0.06830397       2.46332838       0.00000000
Si       1.39239657       2.79085167      -2.25176926       0.00000000
Si      -0.34125921      -2.13117183       3.19936846       0.00000000
