10
Lattice="16.28999089631971 0.0 0.0 0.0 16.28999089631971 0.0 0.0 0.0 34.642051614445585" Properties=species:S:1:pos:R:3:initial_magmoms:R:1 pbc="T T T"
Si      -1.28940237       1.30953681       1.51040122       0.00000000
Si      -0.92463669      -1.80753840      -1.27170839       0.00000000
Si       1.12076829       1.79930773      -1.17921406       0.00000000
Si       1.44814678      -1.38675141       1.50222916       0.00000000
Si      -0.68795928       3.50040239      -0.97976333       0.00000000
Si      -2.72696229       2.68895350       0.11962946       0.00000000
Si      -2.59032177      -2.83872798       0.15295860       0.00000000
Si      -2.61796590      -0.04181643       2.88760715       0.00000000
Si       2.72679192      -2.78891316       0.03686609       0.00000000
Si       0.09663228       2.67410354       2.88684502       0.00000000
