10
Lattice="16.28999089631971 0.0 0.0 0.0 16.28999089631971 0.0 0.0 0.0 34.642051614445585" Properties=species:S:1:pos:R:3:initial_magmoms:R:1 pbc="T T T"
Si       1.35646830      -1.35619137      -1.36229944       0.00000000
Si      -1.35931905       1.35889551      -1.36101768       0.00000000
Si       1.35953082       1.36042677       1.36676827       0.00000000
Si      -1.37047770      -1.35744570       1.38599462       0.00000000
Si       2.71191183      -2.71417464      -0.00045035       0.00000000
Si      -2.71419093      -2.71195920       0.00038106       0.00000000
Si       2.71168481       2.71948518      -0.00356813       0.00000000
Si       2.71292350       0.00177561      -2.71884830       0.00000000
Si      -0.00154755      -2.71295289      -2.71922936       0.00000000
Si      -2.71674846       2.71639008      -0.00294458       0.00000000
