10
Lattice="16.28999089631971 0.0 0.0 0.0 16.28999089631971 0.0 0.0 0.0 34.642051614445585" Properties=species:S:1:pos:R:3:initial_magmoms:R:1 pbc="T T T"
Si       1.35215399       1.35905841      -1.37033640       0.00000000
Si      -1.35953082      -1.36042677      -1.36676827       0.00000000
Si      -1.27752696       1.43429379       1.39313088       0.00000000
Si       1.29018429      -1.45176480       1.45624874       0.00000000
Si      -2.55487473      -0.05665662       2.65961036       0.00000000
Si       0.28779543       2.83547554       2.47465634       0.00000000
Si       2.70757623       2.69666845      -0.01035798       0.00000000
Si       2.70390121      -2.72215674       0.00187067       0.00000000
Si      -2.71818198       2.70795905       0.00117783       0.00000000
Si       2.71191915       0.00003258      -2.72691990       0.00000000
