10
Lattice="16.28999089631971 0.0 0.0 0.0 16.28999089631971 0.0 0.0 0.0 34.642051614445585" Properties=species:S:1:pos:R:3:initial_magmoms:R:1 pbc="T T T"
Si      -1.56695139      -1.23795855      -1.19064798       0.00000000
Si       0.13971933       0.48221658       2.27633048       0.00000000
Si       1.27734777       1.49095041      -1.26647947       0.00000000
Si       0.38046924      -1.85373684       1.53453982       0.00000000
Si       2.55487473       0.05665662      -2.65961036       0.00000000
Si      -0.17513379      -2.66121585      -2.64038401       0.00000000
Si       2.48837895      -2.89145871       0.07610863       0.00000000
Si      -0.16330725       2.76461567      -2.65843253       0.00000000
Si      -3.01708719      -2.42183430       0.45401898       0.00000000
Si      -2.87828010       0.06185313      -2.66813231       0.00000000
