10
Lattice="16.28999089631971 0.0 0.0 0.0 16.28999089631971 0.0 0.0 0.0 34.642051614445585" Properties=species:S:1:pos:R:3:initial_magmoms:R:1 pbc="T T T"
Si      -0.96053985       1.95407251      -0.86407718       0.00000000
Si      -1.98949770      -1.18643328       0.44040465       0.00000000
Si       1.52362392       0.40247703       1.75524445       0.00000000
Si       1.55176164      -1.07917992      -1.41519788       0.00000000
Si      -0.86141520      -2.15278866       2.27310877       0.00000000
Si      -0.97770951       1.36819710      -3.13541920       0.00000000
Si       0.47071584      -0.55425096      -3.51641270       0.00000000
Si       1.26008267       2.72932012       2.03317779       0.00000000
Si       0.61473573      -0.75438990       3.56051205       0.00000000
Si       0.25938567       3.68762336       0.10870682       0.00000000
