10
Lattice="16.28999089631971 0.0 0.0 0.0 16.28999089631971 0.0 0.0 0.0 34.642051614445585" Properties=species:S:1:pos:R:3:initial_magmoms:R:1 pbc="T T T"
Si       1.08104580      -0.52492896       2.10121481       0.00000000
Si      -1.44842535       1.92244806       0.38099350       0.00000000
Si      -1.52397837      -1.87779717       0.38909974       0.00000000
Si       1.48967067       0.03042972      -2.01523319       0.00000000
Si      -0.47071584       0.55425096       3.51641270       0.00000000
Si      -1.15092108      -2.30795091      -2.59195439       0.00000000
Si      -3.25883079      -1.27022904      -1.13352320       0.00000000
Si      -3.49958070       1.06572438      -0.39173254       0.00000000
Si       3.32391653      -1.24761852      -1.05253004       0.00000000
Si      -1.43125569       2.50832347       2.65233552       0.00000000
