10
Lattice="16.28999089631971 0.0 0.0 0.0 16.28999089631971 0.0 0.0 0.0 34.642051614445585" Properties=species:S:1:pos:R:3:initial_magmoms:R:1 pbc="T T T"
Si      -1.73485242       0.60756813      -1.52262295       0.00000000
Si       0.77056587      -1.98457812      -1.08814209       0.00000000
Si       1.52397837       1.87779717      -0.38909974       0.00000000
Si      -1.50931737      -0.41073606       1.97085670       0.00000000
Si       0.37305729      -0.43015374      -2.98105413       0.00000000
Si       2.60502417       1.35286821       1.71211507       0.00000000
Si       2.69595657      -2.26976715       0.31150150       0.00000000
Si      -1.97560233       2.94352155      -0.78083228       0.00000000
Si      -0.57875112      -2.41798986       2.75473748       0.00000000
Si       0.07555302       3.80024523      -0.00810624       0.00000000
