10
Lattice="16.28999089631971 0.0 0.0 0.0 16.28999089631971 0.0 0.0 0.0 34.642051614445585" Properties=species:S:1:pos:R:3:initial_magmoms:R:1 pbc="T T T"
Si       1.40628312      -1.24414875      -1.35083292       0.00000000
Si      -0.49627485      -1.70077374       1.59848908       0.00000000
Si      -1.32462298       1.47136167      -1.33559040       0.00000000
Si       1.76197527       1.24405101       1.29502454       0.00000000
Si       0.11401371      -0.11060910       3.35338711       0.00000000
Si      -2.42883900      -2.57991246       0.36658240       0.00000000
Si       2.78883171      -2.38799997       0.32244840       0.00000000
Si       0.04466718      -2.59646310      -2.70859425       0.00000000
Si       0.37981764       2.30573547       2.93768226       0.00000000
Si      -2.67614318       0.11891700      -2.70467969       0.00000000
