10
Lattice="16.28999089631971 0.0 0.0 0.0 16.28999089631971 0.0 0.0 0.0 34.642051614445585" Properties=species:S:1:pos:R:3:initial_magmoms:R:1 pbc="T T T"
Si      -0.23366050      -1.28560680      -2.00691910       0.00000000
Si      -1.71698948      -0.45382311       1.64546373       0.00000000
Si       2.24505522      -0.71881254       0.59809536       0.00000000
Si      -0.32459291       2.33702856      -0.60630553       0.00000000
Si       2.44024200       0.60370740       2.49045312       0.00000000
Si      -0.57873483      -1.77468147       3.16029221       0.00000000
Si      -3.50836820      -1.43382951       0.43631688       0.00000000
Si       1.65247389      -0.80200557      -3.34434553       0.00000000
Si      -2.92961708       0.98416035      -2.31842060       0.00000000
Si       1.75560588       3.43951947      -0.23470003       0.00000000
