10
Lattice="16.28999089631971 0.0 0.0 0.0 16.28999089631971 0.0 0.0 0.0 34.642051614445585" Properties=species:S:1:pos:R:3:initial_magmoms:R:1 pbc="T T T"
Si       0.67322009      -2.24788968      -0.07666290       0.00000000
Si       1.88613439       0.48360123      -1.33742643       0.00000000
Si       0.23366050       1.28560680       2.00691910       0.00000000
Si      -1.92539070       0.28518903      -1.39964359       0.00000000
Si       1.27584583      -1.10656341      -3.09232447       0.00000000
Si      -2.69595657       2.26976715      -0.31150150       0.00000000
Si       2.47871572       0.56679426       2.60501445       0.00000000
Si      -1.25243451      -3.41135406       0.96055534       0.00000000
Si      -0.09093241       3.62263536       1.40061357       0.00000000
Si       2.15193832       2.89994580      -1.75313129       0.00000000
