10
Lattice="16.28999089631971 0.0 0.0 0.0 16.28999089631971 0.0 0.0 0.0 34.642051614445585" Properties=species:S:1:pos:R:3:initial_magmoms:R:1 pbc="T T T"
Si      -0.19518678      -1.32251994      -1.89235777       0.00000000
Si      -1.39849650      -0.98922654       1.61833899       0.00000000
Si       2.34398439       0.19174959       0.25188250       0.00000000
Si      -0.69252048       2.26722591      -0.41955012       0.00000000
Si      -2.44024200      -0.60370740      -2.49045312       0.00000000
Si       0.48529539       3.22787979       1.37199922       0.00000000
Si       1.48690233      -0.38175615      -3.27190896       0.00000000
Si       2.57253309       2.47217040       0.74771446       0.00000000
Si      -2.12028359       0.75219075       2.96525735       0.00000000
Si      -0.04536765       1.86826752       3.27315608       0.00000000
