10
Lattice="16.28999089631971 0.0 0.0 0.0 16.28999089631971 0.0 0.0 0.0 34.642051614445585" Properties=species:S:1:pos:R:3:initial_magmoms:R:1 pbc="T T T"
Si      -1.35806408      -1.35777150      -1.35692992       0.00000000
Si       1.35787901      -1.35799956       1.35741491       0.00000000
Si      -1.35822185       1.35746199       1.35765740       0.00000000
Si       1.35831884       1.35812988      -1.35699920       0.00000000
Si       2.71379345      -0.00032580       2.71392912       0.00000000
Si      -2.71467704      -0.00050499       2.71420626       0.00000000
Si      -2.71480736       2.71437012       0.00013857       0.00000000
Si       0.00057667      -2.71474479       2.71486446       0.00000000
Si       2.71485230      -2.71520091       0.00003464       0.00000000
Si      -2.71518203      -2.71495656       0.00034642       0.00000000
