10
Lattice="10.86 0.0 0.0 0.0 10.86 0.0 0.0 0.0 10.86" Properties=species:S:1:pos:R:3:initial_magmoms:R:1 pbc="T T T"
Si      -1.27475766       1.31565642       1.32311724       0.00000000
Si       1.21786212      -1.66540272       1.06778778       0.00000000
Si       1.46451444       1.14261318      -1.43485578       0.00000000
Si      -1.19034288      -1.60958232      -1.32944862       0.00000000
Si      -2.57785992       2.63976192      -0.04042092       0.00000000
Si      -2.57785992      -0.07523808       2.67457908       0.00000000
Si       0.13714008       2.63976192       2.67457908       0.00000000
Si      -2.57785992      -0.07523808      -2.75542092       0.00000000
Si      -2.57785992      -2.79023808      -0.04042092       0.00000000
Si       0.13714008       2.63976192      -2.75542092       0.00000000
