10
Lattice="10.86 0.0 0.0 0.0 10.86 0.0 0.0 0.0 10.86" Properties=species:S:1:pos:R:3:initial_magmoms:R:1 pbc="T T T"
Si      -1.37394204      -1.31539578       1.39514076       0.00000000
Si      -1.37394204       1.39960422      -1.31985924       0.00000000
Si       1.34105796       1.39960422       1.39514076       0.00000000
Si       2.57776218      -2.46611052      -0.02349018       0.00000000
Si      -2.71704168      -2.62050714       0.01961316       0.00000000
Si      -0.01644204      -2.67289578       2.75264076       0.00000000
Si       2.83283100      -0.06848316      -2.58800316       0.00000000
Si      -0.01644204       2.75710422      -2.67735924       0.00000000
Si       2.69855796       0.04210422       2.75264076       0.00000000
Si       2.69855796       2.75710422       0.03764076       0.00000000
