10
Lattice="16.28999089631971 0.0 0.0 0.0 16.28999089631971 0.0 0.0 0.0 34.2284985734139" Properties=species:S:1:pos:R:3:initial_magmoms:R:1 pbc="T T T"
Si      -1.34667801      -1.35831559       1.38722706       0.00000000
Si       1.36500426       1.35671265       1.38958882       0.00000000
Si       1.42407180      -1.41873194      -1.41222072       0.00000000
Si      -1.38471516       1.42765560      -1.46409746       0.00000000
Si       0.16648380       2.84560236      -2.53006524       0.00000000
Si      -2.70953199      -2.72157566      -0.00612690       0.00000000
Si      -2.71810053       2.71538010       0.02154001       0.00000000
Si       2.74413195       2.69635338       0.03347549       0.00000000
Si      -2.70725139      -0.00022806       2.75027509       0.00000000
Si       2.74121604      -2.71995441       0.02955633       0.00000000
