10
Lattice="16.28999089631971 0.0 0.0 0.0 16.28999089631971 0.0 0.0 0.0 34.2284985734139" Properties=species:S:1:pos:R:3:initial_magmoms:R:1 pbc="T T T"
Si       1.41700194      -1.28100488      -1.34459886       0.00000000
Si      -1.33911945       1.42866558      -1.33179740       0.00000000
Si       1.03154796       1.69692930       1.32830609       0.00000000
Si      -0.83331495      -1.97567726       1.14593654       0.00000000
Si      -2.65043187       2.63941983       0.34081335       0.00000000
Si       0.04204449      -2.63558258      -2.70504553       0.00000000
Si      -2.67447591       0.08215047      -2.71144626       0.00000000
Si       2.64256380      -2.76556049       0.08142964       0.00000000
Si       2.68998399       2.73830013       0.00889941       0.00000000
Si      -2.71168227      -2.72231054      -0.00314902       0.00000000
