10
Lattice="16.28999089631971 0.0 0.0 0.0 16.28999089631971 0.0 0.0 0.0 34.2284985734139" Properties=species:S:1:pos:R:3:initial_magmoms:R:1 pbc="T T T"
Si       1.24853076       1.11702322       1.61955654       0.00000000
Si      -0.42476175       1.66402513      -1.58505420       0.00000000
Si       1.52293581      -1.30960849      -1.20200286       0.00000000
Si      -1.27210239      -1.70714869       1.01538898       0.00000000
Si      -0.09699066      -2.88002869      -1.91162849       0.00000000
Si       2.65411341      -0.62060176       2.37234433       0.00000000
Si       1.76668308       2.60374636      -1.77731578       0.00000000
Si      -1.66957839       3.23806267      -0.36853845       0.00000000
Si      -0.18059094      -3.66108532       0.26260119       0.00000000
Si       3.03342606      -2.13342541       0.44959158       0.00000000
