10
Lattice="16.28999089631971 0.0 0.0 0.0 16.28999089631971 0.0 0.0 0.0 34.2284985734139" Properties=species:S:1:pos:R:3:initial_magmoms:R:1 pbc="T T T"
Si       1.40682069       1.35759231       1.25191077       0.00000000
Si      -0.93299346       1.64915073      -1.34628157       0.00000000
Si      -1.55119896      -1.41794676       1.06596777       0.00000000
Si       1.02082914      -1.42169346      -1.61251098       0.00000000
Si      -0.96260868      -1.98195543      -2.86469285       0.00000000
Si      -2.17023525       0.18596664      -2.89467703       0.00000000
Si       2.69079849       2.39581917      -0.47372820       0.00000000
Si       2.57764815      -0.14924898       2.56354073       0.00000000
Si      -0.14643081       2.58690087       2.56086748       0.00000000
Si      -2.72719035       2.54244546      -0.13474179       0.00000000
