10
Lattice="16.28999089631971 0.0 0.0 0.0 16.28999089631971 0.0 0.0 0.0 34.2284985734139" Properties=species:S:1:pos:R:3:initial_magmoms:R:1 pbc="T T T"
Si       1.17082746      -1.50684129       1.31162995       0.00000000
Si      -1.40682069      -1.35759231      -1.25191077       0.00000000
Si      -1.55325150       1.22930856       1.30895671       0.00000000
Si       1.28397780       1.03822686      -1.72563897       0.00000000
Si      -2.33981415       0.29155842      -2.59819235       0.00000000
Si       2.56275909       2.57352678      -0.35941655       0.00000000
Si       2.50984917      -0.13276350       2.67195339       0.00000000
Si      -0.43704441       1.87954020      -3.13979018       0.00000000
Si      -0.20872377       2.58001020       2.67000237       0.00000000
Si       2.43967185      -2.98297593      -0.13821818       0.00000000
