10
Lattice="16.28999089631971 0.0 0.0 0.0 16.28999089631971 0.0 0.0 0.0 34.2284985734139" Properties=species:S:1:pos:R:3:initial_magmoms:R:1 pbc="T T T"
Si      -1.35711990      -1.35431802      -1.35688690       0.00000000
Si       1.36016613      -1.35407367       1.35562044       0.00000000
Si       1.35765747       1.36026387      -1.35709227       0.00000000
Si      -1.35713619       1.36252818       1.36113123       0.00000000
Si       2.71248048      -2.71131737       0.00034229       0.00000000
Si       0.00000000      -2.71168553      -2.71408185       0.00000000
Si      -2.71681362      -2.71232247      -0.00010269       0.00000000
Si      -2.71495656       0.00330687      -2.71428723       0.00000000
Si       2.71536381       0.00335574      -2.71418454       0.00000000
Si       2.71451673       2.71785618       0.00006846       0.00000000
