10
Lattice="16.28999089631971 0.0 0.0 0.0 16.28999089631971 0.0 0.0 0.0 34.2284985734139" Properties=species:S:1:pos:R:3:initial_magmoms:R:1 pbc="T T T"
Si       1.35270531       1.34643366      -1.36345877       0.00000000
Si       1.28808288      -1.42529355       1.35277948       0.00000000
Si      -1.36127385      -1.36684503      -1.36161043       0.00000000
Si      -1.48152663       1.21406112       1.38581000       0.00000000
Si      -2.09580624      -0.63886122       2.89022181       0.00000000
Si      -0.37035315      -2.46666438       2.67218615       0.00000000
Si       2.69084736       2.71174743       0.00321748       0.00000000
Si      -0.00376299       2.70273906      -2.72202287       0.00000000
Si       2.71037907      -0.01151703      -2.72267321       0.00000000
Si      -2.74163958       2.69426826       0.00575039       0.00000000
