10
Lattice="16.28999089631971 0.0 0.0 0.0 16.28999089631971 0.0 0.0 0.0 34.2284985734139" Properties=species:S:1:pos:R:3:initial_magmoms:R:1 pbc="T T T"
Si       1.77995943      -1.21300227      -0.90435167       0.00000000
Si       0.04266351       1.86717609      -1.40696322       0.00000000
Si       0.63368100       0.25207146       2.25494052       0.00000000
Si      -2.19144483      -0.93972123       0.19226158       0.00000000
Si       0.63685755      -3.12126337      -1.41178944       0.00000000
Si       2.43082638       2.50413138      -0.78941230       0.00000000
Si      -1.76668308      -2.60374636       1.77731578       0.00000000
Si       3.43271025      -1.05459831       0.73765878       0.00000000
Si      -0.37900314       2.25782658       2.89898431       0.00000000
Si      -0.51815232      -1.48672314       3.39687233       0.00000000
