10
Lattice="16.28999089631971 0.0 0.0 0.0 16.28999089631971 0.0 0.0 0.0 34.2284985734139" Properties=species:S:1:pos:R:3:initial_magmoms:R:1 pbc="T T T"
Si       1.34605899      -1.72555083      -0.95388033       0.00000000
Si      -2.12459067      -0.86887602       0.72074990       0.00000000
Si      -0.20621511       1.77036462      -1.61794780       0.00000000
Si       1.09760391       0.61599006       2.07619920       0.00000000
Si       0.11025072       3.53172087      -0.07964976       0.00000000
Si       0.92439234      -1.33490034       3.35206720       0.00000000
Si      -3.17210283       1.05230142       1.72381661       0.00000000
Si      -3.22304166      -1.56429612      -1.23951731       0.00000000
Si      -1.98852030       3.08491875       1.06751901       0.00000000
Si       1.30339548      -3.59272692       0.45308289       0.00000000
