10
Lattice="16.28999089631971 0.0 0.0 0.0 16.28999089631971 0.0 0.0 0.0 34.2284985734139" Properties=species:S:1:pos:R:3:initial_magmoms:R:1 pbc="T T T"
Si      -0.91031778       1.38267891      -1.70639429       0.00000000
Si      -0.08490348      -2.21648256      -0.95148434       0.00000000
Si       2.35975311       0.53313912      -0.05011055       0.00000000
Si      -1.12322808       0.37269891       2.11597274       0.00000000
Si      -0.37484919      -0.24889491      -3.59084534       0.00000000
Si       3.26992428      -1.62730584      -0.37250896       0.00000000
Si      -3.38185287       0.81717156       1.37564413       0.00000000
Si       2.02911498      -2.60143155      -2.10570418       0.00000000
Si      -0.62377668      -3.84160554       0.70219804       0.00000000
Si      -0.69660927       3.68694828      -1.29534402       0.00000000
