10
Lattice="16.28999089631971 0.0 0.0 0.0 16.28999089631971 0.0 0.0 0.0 34.2284985734139" Properties=species:S:1:pos:R:3:initial_magmoms:R:1 pbc="T T T"
Si      -2.21672691       0.02120958      -0.77164770       0.00000000
Si       0.21370851       2.30426937       0.41105027       0.00000000
Si       0.91031778      -1.38267891       1.70639429       0.00000000
Si       0.53546859      -1.63157382      -1.88445104       0.00000000
Si      -3.31211538       0.73067166       1.26624978       0.00000000
Si       3.27007089      -0.84953979       1.65628374       0.00000000
Si       0.82541430      -3.59916147       0.75490996       0.00000000
Si      -3.03332832      -2.21231232      -0.85489146       0.00000000
Si       2.37128643       2.80725570       1.17301130       0.00000000
Si      -1.11871575      -3.55315851      -1.15610241       0.00000000
