10
Lattice="16.28999089631971 0.0 0.0 0.0 16.28999089631971 0.0 0.0 0.0 34.2284985734139" Properties=species:S:1:pos:R:3:initial_magmoms:R:1 pbc="T T T"
Si       0.68994666       2.04200660       0.84126851       0.00000000
Si       0.52419591       0.84136221      -2.31833173       0.00000000
Si       0.80619210      -1.36637262       2.04303176       0.00000000
Si      -2.59550199       0.56900970      -0.28775915       0.00000000
Si      -1.19096190      -2.64487698      -2.05689431       0.00000000
Si      -0.38809296      -0.87544089      -3.56989748       0.00000000
Si       0.76675401       1.82980683       3.17647490       0.00000000
Si      -1.16398566       3.36001842       1.29835613       0.00000000
Si      -0.24990489      -0.22893966       3.78789891       0.00000000
Si      -2.42999559       2.89500083      -0.57144510       0.00000000
