10
Lattice="16.28999089631971 0.0 0.0 0.0 16.28999089631971 0.0 0.0 0.0 34.2284985734139" Properties=species:S:1:pos:R:3:initial_magmoms:R:1 pbc="T T T"
Si       1.27210239       1.70714869      -1.01538898       0.00000000
Si       1.09151145      -1.95393663      -0.75278779       0.00000000
Si       0.40526262      -0.14685435       2.34328432       0.00000000
Si      -2.19080952      -0.26068887      -1.21388015       0.00000000
Si      -2.82877479       1.78174223      -0.01132964       0.00000000
Si       1.17511173      -1.17288000      -2.92701746       0.00000000
Si       2.79503820       0.39754020      -2.21739183       0.00000000
Si      -1.11781980      -0.63840510      -3.35429205       0.00000000
Si      -0.62420022      -2.24331219       2.82412654       0.00000000
Si      -3.06570632      -2.23174629      -0.28248796       0.00000000
