10
Lattice="16.28999089631971 0.0 0.0 0.0 16.28999089631971 0.0 0.0 0.0 34.2284985734139" Properties=species:S:1:pos:R:3:initial_magmoms:R:1 pbc="T T T"
Si      -1.40558265       1.73762498      -0.75278779       0.00000000
Si       1.79758521       1.45852841       0.57038402       0.00000000
Si      -1.24093962      -1.12821675       1.71823736       0.00000000
Si       0.37931265      -1.51282365      -1.92275275       0.00000000
Si       0.36313668       0.48914960       2.93619071       0.00000000
Si      -2.65411341       0.62060176      -2.37234433       0.00000000
Si       3.69719469       0.04763359       0.47960999       0.00000000
Si       0.03813489      -3.04937790       2.14715492       0.00000000
Si       1.96933068       2.92674611      -1.28675267       0.00000000
Si      -1.13117760      -0.68900673      -3.57434719       0.00000000
