10
Lattice="16.28999089631971 0.0 0.0 0.0 16.28999089631971 0.0 0.0 0.0 34.2284985734139" Properties=species:S:1:pos:R:3:initial_magmoms:R:1 pbc="T T T"
Si       0.85856445       2.20281688       0.24377550       0.00000000
Si      -1.97701956       0.13549859      -1.37417230       0.00000000
Si       1.15515648      -1.61465407      -1.40648402       0.00000000
Si      -1.04396094       1.43493886       2.57774967       0.00000000
Si      -3.04134626      -1.87983898      -0.68843818       0.00000000
Si       3.43517004      -1.50946954      -0.67457563       0.00000000
Si       0.12569364      -3.71111191      -0.92564180       0.00000000
Si      -3.00343128       2.23616251      -0.90958863       0.00000000
Si       2.18575962       2.74545307      -1.61349810       0.00000000
Si      -1.76546133      -3.49921159       0.63196112       0.00000000
