10
Lattice="16.28999089631971 0.0 0.0 0.0 16.28999089631971 0.0 0.0 0.0 34.2284985734139" Properties=species:S:1:pos:R:3:initial_magmoms:R:1 pbc="T T T"
Si       1.35516510      -1.35532800       1.35688690       0.00000000
Si      -1.33902171      -1.37407779      -1.36032344       0.00000000
Si      -1.35998694       1.35759231       1.35688690       0.00000000
Si       1.33547049       1.36412460      -1.38116861       0.00000000
Si      -2.50984917       0.13276350      -2.67195339       0.00000000
Si       2.66523948      -0.02024847      -2.73053208       0.00000000
Si       2.71336014       0.00092853       2.71401340       0.00000000
Si      -0.00174303      -2.71384884       2.71370534       0.00000000
Si       2.71314837       2.71523349      -0.00400474       0.00000000
Si      -0.00149868       2.71551042       2.71363688       0.00000000
