10
Lattice="16.28999089631971 0.0 0.0 0.0 16.28999089631971 0.0 0.0 0.0 34.2284985734139" Properties=species:S:1:pos:R:3:initial_magmoms:R:1 pbc="T T T"
Si      -0.73327806       1.84265964       1.28531507       0.00000000
Si       2.17888524       0.83313576      -0.41539729       0.00000000
Si       0.00529425      -1.59751143       1.76776603       0.00000000
Si      -0.98129331      -0.83409687      -2.06569104       0.00000000
Si      -1.96439481       3.09466017      -0.18870182       0.00000000
Si       2.09453562       1.92202452      -2.54115938       0.00000000
Si      -0.07112214      -2.99454183      -2.38808945       0.00000000
Si       2.20257090      -1.80617004       2.58637525       0.00000000
Si       2.88212454       1.89006354       1.71101514       0.00000000
Si      -2.16111285       1.17563301       3.03928700       0.00000000
