10
Lattice="16.28999089631971 0.0 0.0 0.0 16.28999089631971 0.0 0.0 0.0 34.2284985734139" Properties=species:S:1:pos:R:3:initial_magmoms:R:1 pbc="T T T"
Si       1.41665985      -1.27619118       1.38105223       0.00000000
Si      -1.27703826       1.46547505       1.38768572       0.00000000
Si       1.71716148       1.01274930      -1.34250206       0.00000000
Si      -1.89467361      -0.92997981      -1.16575965       0.00000000
Si       3.41443287      -0.74227014      -1.36581168       0.00000000
Si      -3.44380374       0.91934244      -1.26886176       0.00000000
Si       0.68325147       0.93455730      -3.60408291       0.00000000
Si       0.06818994      -2.60405424       2.75220215       0.00000000
Si      -2.59418250       2.76669753      -0.05409133       0.00000000
Si      -2.66642865      -2.69726562       0.10695043       0.00000000
