10
Lattice="16.28999089631971 0.0 0.0 0.0 16.28999089631971 0.0 0.0 0.0 34.2284985734139" Properties=species:S:1:pos:R:3:initial_magmoms:R:1 pbc="T T T"
Si       1.35596331       1.35690556      -1.35685267       0.00000000
Si      -1.35729909       1.35708433       1.35664730       0.00000000
Si       1.35726651      -1.35755973       1.35709227       0.00000000
Si      -1.35791811      -1.35878148      -1.35746878       0.00000000
Si       0.00338832       2.71074464      -2.71442414       0.00000000
Si       2.71379997      -0.00179190       2.71380803       0.00000000
Si       2.71503801       2.71434473      -0.00051343       0.00000000
Si      -0.00281817       2.71537751       2.71404763       0.00000000
Si       0.00509877      -2.71601541      -2.71391071       0.00000000
Si      -2.71516833      -0.00215028       2.71486911       0.00000000
