10
Lattice="16.28999089631971 0.0 0.0 0.0 16.28999089631971 0.0 0.0 0.0 34.2284985734139" Properties=species:S:1:pos:R:3:initial_magmoms:R:1 pbc="T T T"
Si      -1.34925183      -1.34526078      -1.37454881       0.00000000
Si       1.36902789       1.36676153      -1.36941454       0.00000000
Si      -1.46186460       1.23794226       1.41374047       0.00000000
Si       1.22474736      -1.54399878       1.40521757       0.00000000
Si       0.12698055       2.11124331       2.83935823       0.00000000
Si      -2.70954828      -2.69806383      -0.00941284       0.00000000
Si      -2.68742646       2.72249787      -0.01228804       0.00000000
Si       2.71077003      -2.72016936      -0.01235649       0.00000000
Si      -2.70653463       0.00887805      -2.73314714       0.00000000
Si       0.00700470      -2.70601335      -2.73413977       0.00000000
