10
Lattice="16.28999089631971 0.0 0.0 0.0 16.28999089631971 0.0 0.0 0.0 34.2284985734139" Properties=species:S:1:pos:R:3:initial_magmoms:R:1 pbc="T T T"
Si      -1.33535646      -1.34651511      -1.37964886       0.00000000
Si       1.33911945      -1.42866558       1.33179740       0.00000000
Si       1.37974671       1.36808307      -1.37369310       0.00000000
Si      -1.31131242       1.21075425       1.67261075       0.00000000
Si       2.37066741       0.26826372       2.66010348       0.00000000
Si       0.64521432       2.09606688       2.87813914       0.00000000
Si      -2.68801290      -2.69153480       0.00136914       0.00000000
Si      -2.69093858       2.70443322       0.02221431       0.00000000
Si      -2.69472275       0.00632052      -2.73468742       0.00000000
Si       0.02006928      -2.70676758      -2.73492702       0.00000000
