10
Lattice="16.28999089631971 0.0 0.0 0.0 16.28999089631971 0.0 0.0 0.0 34.2284985734139" Properties=species:S:1:pos:R:3:initial_magmoms:R:1 pbc="T T T"
Si      -2.13912135       0.14082705      -0.93765601       0.00000000
Si      -0.38273355      -1.87328810       1.40696322       0.00000000
Si       0.21515832       2.25355860       0.72773251       0.00000000
Si       2.05126679      -0.49560696      -1.15432253       0.00000000
Si       1.46249569       2.78627418      -1.17889861       0.00000000
Si      -3.16783485       0.05074335       1.20672639       0.00000000
Si       1.33271163      -1.62883873       2.97976361       0.00000000
Si      -2.17790784      -1.46099308      -2.65031413       0.00000000
Si       3.36087854       1.45432233      -0.88443067       0.00000000
Si      -2.25175041       1.57908744       2.72814977       0.00000000
