10
Lattice="16.28999089631971 0.0 0.0 0.0 16.28999089631971 0.0 0.0 0.0 34.2284985734139" Properties=species:S:1:pos:R:3:initial_magmoms:R:1 pbc="T T T"
Si       1.71544518       0.24444937       1.57280039       0.00000000
Si       0.38273355       1.87328810      -1.40696322       0.00000000
Si      -2.17010493       0.02108903       1.04051271       0.00000000
Si      -0.02345760      -2.13899496      -1.12930148       0.00000000
Si      -2.78510130       1.92403145      -0.20023683       0.00000000
Si      -1.75638780       2.01411515      -2.34461923       0.00000000
Si       1.01481813      -1.46416542       3.14080878       0.00000000
Si      -2.34075897      -2.56185078      -1.42832182       0.00000000
Si       2.43400034       1.37768114      -2.56128575       0.00000000
Si       1.01517651      -3.77469015       0.27885973       0.00000000
