10
Lattice="16.28999089631971 0.0 0.0 0.0 16.28999089631971 0.0 0.0 0.0 34.2284985734139" Properties=species:S:1:pos:R:3:initial_magmoms:R:1 pbc="T T T"
Si       1.24733737       0.53271558      -1.90663112       0.00000000
Si       1.32559779       0.18518472       1.92326618       0.00000000
Si      -1.98961173       1.12352130       0.64445453       0.00000000
Si      -0.21515832      -2.25355860      -0.72773251       0.00000000
Si      -2.46690873      -0.67447116       2.00041726       0.00000000
Si      -2.35427967      -2.11273155      -1.66538853       0.00000000
Si       3.14572022      -0.79923627      -1.61216318       0.00000000
Si       0.18052578       1.85518665       3.12400258       0.00000000
Si       2.17680731       2.61659754      -1.67918262       0.00000000
Si       1.83610847      -2.74916556      -1.88205505       0.00000000
