10
Lattice="16.28999089631971 0.0 0.0 0.0 16.28999089631971 0.0 0.0 0.0 34.2284985734139" Properties=species:S:1:pos:R:3:initial_magmoms:R:1 pbc="T T T"
Si       1.36127385       1.14277608      -1.50482255       0.00000000
Si      -1.55538549      -1.26842085      -1.32317181       0.00000000
Si      -1.39302306       1.54478070       1.21994857       0.00000000
Si       1.59672951      -1.50695532       1.01764806       0.00000000
Si      -2.49650766      -0.20411370       2.50127772       0.00000000
Si       0.31413636       2.62412352       2.45382331       0.00000000
Si      -3.42897984       0.31628664      -1.63009893       0.00000000
Si       0.35526861      -2.87612982       2.49944307       0.00000000
Si       2.93662178      -0.21339900       2.44916823       0.00000000
Si       0.18845901       2.53662993      -2.93478734       0.00000000
