10
Lattice="16.28999089631971 0.0 0.0 0.0 16.28999089631971 0.0 0.0 0.0 34.2284985734139" Properties=species:S:1:pos:R:3:initial_magmoms:R:1 pbc="T T T"
Si      -1.17281484       1.39385385      -1.42996478       0.00000000
Si      -1.36127385      -1.14277608       1.50482255       0.00000000
Si       1.80899377       1.14401412       1.04537316       0.00000000
Si       0.09138690       0.56975904      -3.27885240       0.00000000
Si       0.23719869       3.23221293      -1.13440153       0.00000000
Si       0.23545566      -2.64973140       2.52247061       0.00000000
Si      -0.37639674      -1.76691114      -3.28419204       0.00000000
Si       0.50652193       2.75657751       2.50915572       0.00000000
Si      -2.91665934      -2.41119693       0.18165074       0.00000000
Si      -2.75429691       0.40200462       2.72477112       0.00000000
