10
Lattice="16.28999089631971 0.0 0.0 0.0 16.28999089631971 0.0 0.0 0.0 34.2284985734139" Properties=species:S:1:pos:R:3:initial_magmoms:R:1 pbc="T T T"
Si      -1.39196421       1.27883016       1.40960224       0.00000000
Si      -1.70715942      -1.07934282      -1.23387474       0.00000000
Si       1.30658832      -1.44663345       1.40056591       0.00000000
Si       1.55365942       1.27523007      -1.44949014       0.00000000
Si      -0.31413636      -2.62412352      -2.45382331       0.00000000
Si      -2.76548814       2.57018733      -0.05514556       0.00000000
Si      -0.04996143       2.62163115       2.77562473       0.00000000
Si       2.66741324      -0.09356976       2.77387907       0.00000000
Si       2.62248542      -2.83752252      -0.00465508       0.00000000
Si       2.83321123       2.67152742      -0.03914031       0.00000000
