10
Lattice="16.28999089631971 0.0 0.0 0.0 16.28999089631971 0.0 0.0 0.0 34.2284985734139" Properties=species:S:1:pos:R:3:initial_magmoms:R:1 pbc="T T T"
Si       1.35582552      -1.35806472      -1.36126815       0.00000000
Si      -1.36071999       1.35716877      -1.36119969       0.00000000
Si      -1.36327752      -1.35746199       1.36352723       0.00000000
Si       1.36546431       1.34301276       1.38505697       0.00000000
Si       2.71397006      -2.70971118      -0.00243022       0.00000000
Si      -2.71746522      -2.71205694      -0.00540811       0.00000000
Si       2.71480085       2.71687878      -0.00308057       0.00000000
Si      -0.00141181      -2.71368594      -2.71846310       0.00000000
Si      -2.71524978       2.71707426       0.00075303       0.00000000
Si       2.71405151       0.00112401      -2.71836042       0.00000000
