10
Lattice="16.28999089631971 0.0 0.0 0.0 16.28999089631971 0.0 0.0 0.0 34.2284985734139" Properties=species:S:1:pos:R:3:initial_magmoms:R:1 pbc="T T T"
Si       0.86270211       1.82371437       1.21843254       0.00000000
Si      -1.29973023       1.40600619      -1.40631288       0.00000000
Si      -1.16670609      -1.62579087       1.28172107       0.00000000
Si       1.42342020      -1.29401244      -1.40312963       0.00000000
Si       0.45455616      -3.45875796       1.47138129       0.00000000
Si      -2.65570983      -2.70278793      -0.14752491       0.00000000
Si      -2.78575290       2.58217677       0.01126118       0.00000000
Si       2.42753580      -2.92750848      -0.04518164       0.00000000
Si      -0.92862774       3.49097958       1.22596282       0.00000000
Si      -2.64231945       0.06587676      -2.77179113       0.00000000
