10
Lattice="16.28999089631971 0.0 0.0 0.0 16.28999089631971 0.0 0.0 0.0 34.2284985734139" Properties=species:S:1:pos:R:3:initial_magmoms:R:1 pbc="T T T"
Si      -1.23434217       1.39028634       1.42860591       0.00000000
Si       1.50036396      -1.32756984       1.40175364       0.00000000
Si       0.80213589       1.94527102      -1.27306054       0.00000000
Si      -1.94308749      -0.82104858      -1.32669191       0.00000000
Si      -2.58222564      -2.73473262      -0.04208396       0.00000000
Si      -2.63443509       2.69892787      -0.00759873       0.00000000
Si      -2.57818572       0.03557736       2.79050044       0.00000000
Si       0.33980940       1.33749045      -3.56229331       0.00000000
Si       0.13330107      -2.68328880       2.78868633       0.00000000
Si       0.13405041       2.74738085       2.78711182       0.00000000
