10
Lattice="16.28999089631971 0.0 0.0 0.0 16.28999089631971 0.0 0.0 0.0 34.2284985734139" Properties=species:S:1:pos:R:3:initial_magmoms:R:1 pbc="T T T"
Si       1.35452979      -1.35990549      -1.36195272       0.00000000
Si      -1.35951453       1.35488817      -1.36226078       0.00000000
Si       1.36319607       1.35166275       1.36784002       0.00000000
Si      -1.37117817      -1.37451762       1.35959095       0.00000000
Si      -2.71292031       2.71241327       0.00253291       0.00000000
Si       2.71094551       2.71495785      -0.00338862       0.00000000
Si      -2.71376739      -2.71464705      -0.00588731       0.00000000
Si       2.71524978      -2.71707426      -0.00075303       0.00000000
Si      -0.00068418       2.71390772      -2.71887385       0.00000000
Si       2.71405528      -0.00063531      -2.71904499       0.00000000
