10
Lattice="16.28999089631971 0.0 0.0 0.0 16.28999089631971 0.0 0.0 0.0 34.2284985734139" Properties=species:S:1:pos:R:3:initial_magmoms:R:1 pbc="T T T"
Si       1.34760654       1.34820927       1.36329790       0.00000000
Si      -1.20184525       1.39657428      -1.45762827       0.00000000
Si       1.43252631      -1.29189474      -1.36292823       0.00000000
Si      -1.36764324      -1.36852290       1.35539111       0.00000000
Si      -2.48139706       0.00027693      -2.86797810       0.00000000
Si       2.69698869       2.69053785       0.00150605       0.00000000
Si      -0.00988803       2.70363501       2.71587201       0.00000000
Si      -2.71795501       2.70239697      -0.02979592       0.00000000
Si       2.70495450      -0.00703728       2.71655658       0.00000000
Si       2.71595025      -2.72086983      -0.00349815       0.00000000
