10
Lattice="16.28999089631971 0.0 0.0 0.0 16.28999089631971 0.0 0.0 0.0 34.2284985734139" Properties=species:S:1:pos:R:3:initial_magmoms:R:1 pbc="T T T"
Si       1.35836038       1.35669636       1.35733187       0.00000000
Si      -1.35894586       1.35531171      -1.35883792       0.00000000
Si      -1.35700735      -1.35871632       1.35743456       0.00000000
Si       1.35842880      -1.35988920      -1.36058358       0.00000000
Si      -2.70094864       0.01251072      -2.72486041       0.00000000
Si       2.71618401       2.71226871      -0.00010269       0.00000000
Si      -2.71386661       2.71461447      -0.00092417       0.00000000
Si      -2.71456708      -0.00144981       2.71449260       0.00000000
Si       0.00069365       2.71446786       2.71473220       0.00000000
Si      -2.71370371      -2.71640637       0.00006846       0.00000000
