10
Lattice="16.28999089631971 0.0 0.0 0.0 16.28999089631971 0.0 0.0 0.0 34.2284985734139" Properties=species:S:1:pos:R:3:initial_magmoms:R:1 pbc="T T T"
Si       1.41055110      -1.21337694      -1.54774511       0.00000000
Si      -1.55917129      -1.53003825       1.05410143       0.00000000
Si       1.83585042       0.91251693       1.36729237       0.00000000
Si      -1.27261064       1.49553603      -1.52956977       0.00000000
Si       2.63871936       2.68195302      -0.14571080       0.00000000
Si       3.52373877      -0.84879045       1.04770070       0.00000000
Si       2.67066405      -2.69358408      -0.16768551       0.00000000
Si       0.07589511      -2.55718791      -2.91705696       0.00000000
Si      -2.62228080       2.86213671      -0.12137432       0.00000000
Si      -2.63807495       0.15252327      -2.91462674       0.00000000
