10
Lattice="16.28999089631971 0.0 0.0 0.0 16.28999089631971 0.0 0.0 0.0 34.2284985734139" Properties=species:S:1:pos:R:3:initial_magmoms:R:1 pbc="T T T"
Si       1.34769397       1.36332639       1.38505012       0.00000000
Si      -1.36706289      -1.35571896       1.38693269       0.00000000
Si      -1.50036396       1.32756984      -1.40175364       0.00000000
Si       1.51610976      -1.30582269      -1.42783235       0.00000000
Si      -2.70906567      -2.69851995       0.02091020       0.00000000
Si       2.70432028       2.71264521      -0.01063138       0.00000000
Si       2.71795501      -2.70239697       0.02979592       0.00000000
Si      -2.73470613       2.71785618       0.02685227       0.00000000
Si       2.70806698       0.00123804       2.74566793       0.00000000
Si      -0.00811703      -2.71103067       2.74577062       0.00000000
