10
Lattice="16.28999089631971 0.0 0.0 0.0 16.28999089631971 0.0 0.0 0.0 34.2284985734139" Properties=species:S:1:pos:R:3:initial_magmoms:R:1 pbc="T T T"
Si       1.20184525      -1.39657428       1.45762827       0.00000000
Si      -1.27955181      -1.39629735      -1.41034983       0.00000000
Si       1.45968337       1.08523980      -1.57916488       0.00000000
Si      -1.51610976       1.30582269       1.42783235       0.00000000
Si      -1.40450230       0.40762467      -3.14532493       0.00000000
Si       2.59234336       2.57557932      -0.02736912       0.00000000
Si       2.63437156      -2.68846902       0.09470004       0.00000000
Si       2.54945179      -0.04836501       2.82092617       0.00000000
Si      -0.16841579       2.66914908       2.81288247       0.00000000
Si      -2.83321123      -2.67152742       0.03914031       0.00000000
