10
Lattice="16.28999089631971 0.0 0.0 0.0 16.28999089631971 0.0 0.0 0.0 34.2284985734139" Properties=species:S:1:pos:R:3:initial_magmoms:R:1 pbc="T T T"
Si       0.94661190      -1.41778386       1.58217900       0.00000000
Si      -2.30711102      -0.05414796      -0.40317771       0.00000000
Si       0.65106243       2.03227754       1.01662120       0.00000000
Si       0.85253715      -0.13864419      -2.28530121       0.00000000
Si      -2.40569810      -2.22298227      -1.25266106       0.00000000
Si       1.01804355       2.18734694      -2.56898717       0.00000000
Si       2.28405348       2.65236453      -0.69918593       0.00000000
Si      -3.27600764       0.21092292       1.74948800       0.00000000
Si       3.19813425      -0.93659355       1.79035685       0.00000000
Si       0.72840735      -3.64762422       0.90068921       0.00000000
