10
Lattice="16.28999089631971 0.0 0.0 0.0 16.28999089631971 0.0 0.0 0.0 34.2284985734139" Properties=species:S:1:pos:R:3:initial_magmoms:R:1 pbc="T T T"
Si       1.33535646       1.34651511       1.37964886       0.00000000
Si      -1.35936629       1.35283563      -1.35503856       0.00000000
Si       1.35542574      -1.36025247      -1.35527816       0.00000000
Si      -1.35265644      -1.34501969       1.38101800       0.00000000
Si       2.67447591      -0.08215047       2.71144626       0.00000000
Si      -2.70883871       2.71072116       0.00622959       0.00000000
Si      -0.00021177       2.71244790      -2.71148049       0.00000000
Si      -2.71439900      -0.00260640      -2.71209660       0.00000000
Si       2.71511946      -0.00224802      -2.71206237       0.00000000
Si      -0.00032580      -2.71730593      -2.71185700       0.00000000
