10
Lattice="16.28999089631971 0.0 0.0 0.0 16.28999089631971 0.0 0.0 0.0 34.2284985734139" Properties=species:S:1:pos:R:3:initial_magmoms:R:1 pbc="T T T"
Si      -1.05391413      -1.16374131      -1.72693140       0.00000000
Si       1.68772545      -1.61816715       0.33098977       0.00000000
Si       1.02946284       2.09645784      -0.48084222       0.00000000
Si      -1.89115497       0.21190032       1.55760293       0.00000000
Si       0.41220216      -2.18290887       2.29081200       0.00000000
Si       0.61401897      -1.70228871      -3.16131167       0.00000000
Si       0.62420022       2.24331219      -2.82412654       0.00000000
Si      -3.16703990       1.83127293       0.23720363       0.00000000
Si      -1.77510501      -3.17109285      -0.80861450       0.00000000
Si      -0.90906345      -0.60452190       3.56168264       0.00000000
