10
Lattice="10.86 0.0 0.0 0.0 10.86 0.0 0.0 0.0 10.86" Properties=species:S:1:pos:R:3:initial_magmoms:R:1 pbc="T T T"
Si       1.41972780       1.21457154       1.23660648       0.00000000
Si      -1.29527220       1.21457154      -1.47839352       0.00000000
Si       1.41972780      -1.50042846      -1.47839352       0.00000000
Si      -1.05166068      -2.11266096       1.22985156       0.00000000
Si      -2.29884480      -0.35416632       2.37365934       0.00000000
Si       0.06222780       2.57207154       2.59410648       0.00000000
Si      -2.65277220       2.57207154      -0.12089352       0.00000000
Si       2.77722780       2.57207154      -0.12089352       0.00000000
Si       2.74949136      -0.24856368       2.61350244       0.00000000
Si       0.06222780       2.57207154      -2.83589352       0.00000000
