10
Lattice="10.86 0.0 0.0 0.0 10.86 0.0 0.0 0.0 10.86" Properties=species:S:1:pos:R:3:initial_magmoms:R:1 pbc="T T T"
Si      -1.56601200       1.90276974      -0.36127962       0.00000000
Si      -0.94274574       0.24151554       2.31048672       0.00000000
Si      -0.57073644      -1.65994014      -1.82813982       0.00000000
Si       2.02074192      -1.40095086       1.04444964       0.00000000
Si       2.34888768       1.22787504      -1.86292440       0.00000000
Si      -1.80962352      -2.91499776      -0.35452470       0.00000000
Si      -1.80962352      -0.19999776      -3.06952470       0.00000000
Si      -3.08751972       0.94023708      -1.91498724       0.00000000
Si       0.90537648      -2.91499776       2.36047530       0.00000000
Si       0.90537648       2.51500224      -3.06952470       0.00000000
