10
Lattice="10.86 0.0 0.0 0.0 10.86 0.0 0.0 0.0 10.86" Properties=species:S:1:pos:R:3:initial_magmoms:R:1 pbc="T T T"
Si      -1.19705436       1.28814804      -1.39721502       0.00000000
Si      -1.19705436      -1.42685196       1.31778498       0.00000000
Si       1.51794564       1.28814804       1.31778498       0.00000000
Si      -2.55455436       2.64564804      -0.03971502       0.00000000
Si      -2.55455436      -0.06935196       2.67528498       0.00000000
Si      -2.20062696      -0.28058982      -2.97516216       0.00000000
Si       0.16044564       2.64564804       2.67528498       0.00000000
Si      -2.41836996      -2.88682692      -0.37498494       0.00000000
Si       0.16044564       2.64564804      -2.75471502       0.00000000
Si       0.16044564      -2.78435196       2.67528498       0.00000000
