10
Lattice="10.86 0.0 0.0 0.0 10.86 0.0 0.0 0.0 10.86" Properties=species:S:1:pos:R:3:initial_magmoms:R:1 pbc="T T T"
Si       1.38523644      -1.25186478      -1.37689596       0.00000000
Si      -1.32976356       1.46313522      -1.37689596       0.00000000
Si       1.38523644       1.46313522       1.33810404       0.00000000
Si       2.74273644      -2.60936478      -0.01939596       0.00000000
Si      -2.74949136       0.24856368      -2.61350244       0.00000000
Si       0.11374764      -2.53899198      -2.88529566       0.00000000
Si       2.74273644       0.10563522       2.69560404       0.00000000
Si       2.74273644       0.10563522      -2.73439596       0.00000000
Si      -2.68726356       2.82063522      -0.01939596       0.00000000
Si       0.02773644       2.82063522       2.69560404       0.00000000
