10
Lattice="16.290000149 0.0 0.0 0.0 16.290000149 0.0 0.0 0.0 29.1751946751" Properties=species:S:1:pos:R:3:initial_magmoms:R:1 pbc="T T T"
Si      -0.44261559       0.25252758      -2.28301267       0.00000000
Si       0.81243118       1.85688083       1.18251907       0.00000000
Si      -1.87084136      -0.80536132       1.19818032       0.00000000
Si       1.63344718      -1.73622080       0.08449311       0.00000000
Si       2.18722574       0.59261392       2.59987920       0.00000000
Si      -0.66771082      -2.20193561       2.63949912       0.00000000
Si      -2.16194366       1.89465734      -2.20027181       0.00000000
Si      -0.48694068      -2.04428099      -2.94814875       0.00000000
Si       1.71712892      -2.42764985      -2.14498482       0.00000000
Si       0.64655011      -3.52455004       1.23829913       0.00000000
