10
Lattice="16.290000149 0.0 0.0 0.0 16.290000149 0.0 0.0 0.0 29.1751946751" Properties=species:S:1:pos:R:3:initial_magmoms:R:1 pbc="T T T"
Si      -1.35378046      -1.31487994       1.40160261       0.00000000
Si       1.34392501       1.36914193       1.36422919       0.00000000
Si      -1.37352394       1.34985457      -1.36421752       0.00000000
Si       1.42780222      -1.37596744      -1.29236193       0.00000000
Si      -2.67406868      -2.65903301       0.01040679       0.00000000
Si      -2.54888003      -0.11934054      -2.81039107       0.00000000
Si       2.69138495      -0.01060479      -2.71679705       0.00000000
Si       2.71101440       2.71985987       0.01391365       0.00000000
Si      -0.00174303      -2.68205078       2.75792824       0.00000000
Si       2.80259679      -2.64023435       0.12499820       0.00000000
