10
Lattice="16.290000149 0.0 0.0 0.0 16.290000149 0.0 0.0 0.0 29.1751946751" Properties=species:S:1:pos:R:3:initial_magmoms:R:1 pbc="T T T"
H        0.10520082      -1.18196983      -1.19189423       0.00000000
Si      -1.38217556       1.22126131      -1.47702341       0.00000000
Si       1.45787356       1.34185618       1.30474388       0.00000000
Si      -1.17453833      -1.68704129       1.22506642       0.00000000
Si       1.84326239      -0.71012998      -1.42199899       0.00000000
Si      -1.57245742      -0.66572344      -2.88501830       0.00000000
Si      -2.60835271      -0.38110455       2.55350056       0.00000000
Si      -0.00281817       2.53518014       2.66220996       0.00000000
Si       0.73120924      -0.81635707      -3.51949126       0.00000000
Si       2.65227266      -2.56443698      -0.26246005       0.00000000
