10
Lattice="16.290000149 0.0 0.0 0.0 16.290000149 0.0 0.0 0.0 29.1751946751" Properties=species:S:1:pos:R:3:initial_magmoms:R:1 pbc="T T T"
Si       1.04278807       1.09846729      -0.21210367       0.00000000
H       -0.54206604       1.54740340       1.80174332       0.00000000
Si      -2.20890773      -0.78916906      -1.13304786       0.00000000
Si      -0.96769117       0.25378191       2.46731704       0.00000000
Si       1.04376547      -1.13731894       2.38804803       0.00000000
Si      -0.53555004      -2.47089980      -1.38739721       0.00000000
Si      -0.18893142      -2.71645526       0.97287604       0.00000000
Si       2.22762494       0.92206288       1.80597373       0.00000000
Si       2.52568633       0.02507031      -1.64606448       0.00000000
Si      -0.21447414       2.74398537      -1.36962951       0.00000000
