10
Lattice="16.290000149 0.0 0.0 0.0 16.290000149 0.0 0.0 0.0 29.1751946751" Properties=species:S:1:pos:R:3:initial_magmoms:R:1 pbc="T T T"
Si      -1.33211476       1.36623091      -1.37205106       0.00000000
Si       1.37039789       1.37229079       1.33018465       0.00000000
Si       1.36960946      -1.33995025      -1.38039516       0.00000000
Si      -1.37875303      -1.32683680       1.38943947       0.00000000
Si      -2.63635733      -2.69470811      -0.06631522       0.00000000
Si       0.06007881      -2.67620267       2.67635731       0.00000000
Si      -0.02594997       2.70967862       2.67842875       0.00000000
Si      -2.70303230       2.70612740      -0.00644772       0.00000000
Si      -2.66406662       0.01146816      -2.75539291       0.00000000
Si       2.77625586       0.03363885       2.66287837       0.00000000
