10
Lattice="16.290000149 0.0 0.0 0.0 16.290000149 0.0 0.0 0.0 29.1751946751" Properties=species:S:1:pos:R:3:initial_magmoms:R:1 pbc="T T T"
Si      -2.30755997      -0.08655040       0.35780459       0.00000000
H       -0.90515386       1.56214585      -1.49549130       0.00000000
Si       0.97443523      -0.40467781      -2.15199153       0.00000000
Si       1.02338668       2.15003567       0.39386513       0.00000000
Si       0.05699871      -2.06609330       1.28744299       0.00000000
H       -2.92003140       1.22039794      -0.08002756       0.00000000
Si       2.84312631       1.26122068       1.53966255       0.00000000
Si       2.89303887      -1.46442377      -1.37412249       0.00000000
Si       3.53172090      -0.78769644       0.77229658       0.00000000
Si      -3.15431418      -1.74752606      -1.03907456       0.00000000
