10
Lattice="16.290000149 0.0 0.0 0.0 16.290000149 0.0 0.0 0.0 29.1751946751" Properties=species:S:1:pos:R:3:initial_magmoms:R:1 pbc="T T T"
Si      -1.26358273      -1.36536265       1.42443512       0.00000000
Si      -1.44029665       1.42262200      -1.21838530       0.00000000
Si       0.95190616      -1.26750862      -1.75792218       0.00000000
Si       1.38458485       1.38214135       1.34188974       0.00000000
Si       2.34931124       0.16614171      -2.93105676       0.00000000
Si      -2.69138495       0.01060479       2.71679705       0.00000000
Si      -2.07601391      -3.22224348       0.24191605       0.00000000
Si       2.73214253       0.01972719       2.71833166       0.00000000
Si       0.01962945       2.73046466       2.73071070       0.00000000
Si      -0.17215272       2.90706456      -2.54130533       0.00000000
