10
Lattice="16.290000149 0.0 0.0 0.0 16.290000149 0.0 0.0 0.0 29.1751946751" Properties=species:S:1:pos:R:3:initial_magmoms:R:1 pbc="T T T"
Si      -0.90645706       0.89863786      -0.80888227       0.00000000
Si       0.90515386      -1.56214585       1.49549130       0.00000000
H       -2.01487754      -0.34174791       1.41546374       0.00000000
Si       1.92854054       0.58788982       1.88935643       0.00000000
Si       1.87958909      -1.96682367      -0.65650023       0.00000000
Si      -1.40240611      -1.64869625       1.85329589       0.00000000
Si      -2.21991977      -0.56703862      -2.08865219       0.00000000
Si       0.44002548       2.20923353      -2.19899277       0.00000000
Si      -2.05190471       2.32293773       0.65460384       0.00000000
Si       3.04815225       2.02815389       0.33773205       0.00000000
