10
Lattice="16.290000149 0.0 0.0 0.0 16.290000149 0.0 0.0 0.0 29.1751946751" Properties=species:S:1:pos:R:3:initial_magmoms:R:1 pbc="T T T"
Si      -1.30411225       1.38039832      -1.37511445       0.00000000
Si       1.37893711       1.36212094       1.33365650       0.00000000
Si       1.39634786      -1.33738784      -1.34824410       0.00000000
Si      -1.38279295      -1.33773481       1.38118289       0.00000000
Si       0.08626668      -2.63071725       2.65327973       0.00000000
Si      -2.67708233      -0.00355122      -2.68487647       0.00000000
Si      -2.62775621       2.75118555      -0.00131288       0.00000000
Si       0.02594997      -2.70967862      -2.67842875       0.00000000
Si      -2.61474050       0.09246204       2.79723014       0.00000000
Si       2.72683199       0.02537982       2.70786652       0.00000000
