10
Lattice="16.290000149 0.0 0.0 0.0 16.290000149 0.0 0.0 0.0 29.1751946751" Properties=species:S:1:pos:R:3:initial_magmoms:R:1 pbc="T T T"
Si       0.65405980      -0.42253002       2.13150180       0.00000000
Si      -1.07052994      -1.75837520      -1.06428193       0.00000000
Si      -1.69898186       1.59834223      -0.01721336       0.00000000
Si       1.78513967       0.58437118      -1.44195482       0.00000000
Si      -0.30157677       3.03199257      -1.19034794       0.00000000
H        3.07121889       1.12932055      -0.50706488       0.00000000
H       -0.55721575      -3.03930678       1.33348145       0.00000000
Si      -1.99790336      -0.71364862      -2.89765116       0.00000000
Si      -1.25328745      -1.21305115       3.25386278       0.00000000
Si       0.76553227       1.92301823      -3.05995277       0.00000000
