10
Lattice="16.290000149 0.0 0.0 0.0 16.290000149 0.0 0.0 0.0 29.1751946751" Properties=species:S:1:pos:R:3:initial_magmoms:R:1 pbc="T T T"
Si      -2.19299240       0.72511678       0.46732827       0.00000000
Si      -0.26775873      -2.03085803       1.19597876       0.00000000
Si       1.57439593       1.31004181       1.20662770       0.00000000
Si      -0.28763253       0.88545925      -2.24126763       0.00000000
H        2.24542991      -0.95361661      -1.63384008       0.00000000
H        0.80777224      -1.86536792      -2.18140013       0.00000000
H        1.61699428      -2.61099380      -0.52652474       0.00000000
H        1.04327677      -2.48800430       1.80667393       0.00000000
Si      -2.15186015       2.86936787      -0.51330838       0.00000000
Si      -0.40513230       3.19071744      -2.00605721       0.00000000
