10
Lattice="16.290000149 0.0 0.0 0.0 16.290000149 0.0 0.0 0.0 29.1751946751" Properties=species:S:1:pos:R:3:initial_magmoms:R:1 pbc="T T T"
Si       1.38067525      -1.44981164       1.15589204       0.00000000
Si      -1.23064952      -1.36327541      -1.44376368       0.00000000
Si       1.40991580       1.29282165      -1.38917689       0.00000000
Si      -1.21657500       1.28420424       1.60752405       0.00000000
H        1.61495803       1.51811235       2.11493904       0.00000000
Si       2.22742946       0.21116401       2.55277118       0.00000000
Si      -2.50435946       2.63081710       0.10447637       0.00000000
Si      -2.54441657      -2.69962932      -0.07856880       0.00000000
Si       0.06202092       2.62956278      -2.76338691       0.00000000
Si      -2.69970914      -0.07029298      -2.71586052       0.00000000
