10
Lattice="16.290000149 0.0 0.0 0.0 16.290000149 0.0 0.0 0.0 29.1751946751" Properties=species:S:1:pos:R:3:initial_magmoms:R:1 pbc="T T T"
Si      -1.36840888      -1.34845363      -1.33870381       0.00000000
Si      -1.36508572       1.34757397       1.35008213       0.00000000
Si       1.32566392      -1.38298843       1.35988500       0.00000000
Si       1.38541923       1.33120252      -1.36723715       0.00000000
Si       0.07407063      -2.68050649      -2.62133289       0.00000000
Si       2.69562198      -0.01371618       2.68484729       0.00000000
Si      -0.00610875       2.71293662       2.68102534       0.00000000
Si      -2.69428457       2.71414208      -0.02587840       0.00000000
Si       0.05564664       2.73953819      -2.67831205       0.00000000
Si      -2.72085356      -0.02994102       2.70611601       0.00000000
