10
Lattice="16.290000149 0.0 0.0 0.0 16.290000149 0.0 0.0 0.0 29.1751946751" Properties=species:S:1:pos:R:3:initial_magmoms:R:1 pbc="T T T"
Si      -1.30398193      -1.35490447       1.43493819       0.00000000
Si       1.36237832      -1.45689616      -1.28608051       0.00000000
Si       1.38755452       1.28583487       1.43683457       0.00000000
Si      -1.30277647       1.52739928      -1.31890260       0.00000000
Si       2.71681364      -0.02487483      -2.54907790       0.00000000
Si      -2.53534304       2.72843232       0.27738025       0.00000000
Si      -2.65963574      -2.68750793       0.05512945       0.00000000
Si       2.80013700       2.66942603       0.17405921       0.00000000
Si      -2.64919385      -0.05271444       2.85868769       0.00000000
Si       0.17899745       2.82975336      -2.69244743       0.00000000
