10
Lattice="16.290000149 0.0 0.0 0.0 16.290000149 0.0 0.0 0.0 29.1751946751" Properties=species:S:1:pos:R:3:initial_magmoms:R:1 pbc="T T T"
Si      -1.33655216      -1.35019666       1.37062147       0.00000000
Si       1.35172792      -1.36122499      -1.36081861       0.00000000
Si      -1.40585796       1.33865194      -1.33269372       0.00000000
Si       1.34374582       1.34645974       1.38800989       0.00000000
Si       2.65197944       2.69363297      -0.03436838       0.00000000
Si      -2.71593915       0.04532253       2.66883011       0.00000000
Si      -0.05841594       2.69218316      -2.70909188       0.00000000
Si      -0.07537383       2.70141959       2.72341690       0.00000000
Si      -2.71617705      -2.70984152       0.01347894       0.00000000
Si       2.71552673      -0.01120752      -2.71063816       0.00000000
