10
Lattice="16.290000149 0.0 0.0 0.0 16.290000149 0.0 0.0 0.0 29.1751946751" Properties=species:S:1:pos:R:3:initial_magmoms:R:1 pbc="T T T"
Si       1.37697742       1.34016202       1.33254784       0.00000000
Si       1.37870416      -1.36601425      -1.31177510       0.00000000
Si      -1.35365014      -1.35136954       1.36207314       0.00000000
Si      -1.35097858       1.37668420      -1.34182555       0.00000000
Si      -0.05738967       2.66181860       2.61491435       0.00000000
Si       0.00029322      -2.70141959      -2.65631395       0.00000000
Si       2.73489555      -0.01045818      -2.66950114       0.00000000
Si      -2.71573850       0.02127474      -2.68913604       0.00000000
Si       0.00928530      -2.67768506       2.74255583       0.00000000
Si       2.72613152       2.69804756      -0.02071439       0.00000000
