10
Lattice="16.290000149 0.0 0.0 0.0 16.290000149 0.0 0.0 0.0 29.1751946751" Properties=species:S:1:pos:R:3:initial_magmoms:R:1 pbc="T T T"
Si      -1.83523142      -1.29011914       0.62230690       0.00000000
Si       1.82314424      -1.45560925      -0.17131674       0.00000000
Si      -1.03506661       0.82516996      -1.95129537       0.00000000
Si       0.64860265       1.77152123       1.58885193       0.00000000
H       -0.01967832      -1.12128958       3.09896000       0.00000000
Si      -2.56271024       2.09008847      -0.73766562       0.00000000
Si       3.44351055       0.22893966      -0.09207691       0.00000000
Si      -3.48821031       0.36074205       0.53866162       0.00000000
Si      -1.37256283      -1.70724089       2.83256130       0.00000000
Si       2.88072363       1.26346870       1.91759802       0.00000000
