10
Lattice="16.290000149 0.0 0.0 0.0 16.290000149 0.0 0.0 0.0 29.1751946751" Properties=species:S:1:pos:R:3:initial_magmoms:R:1 pbc="T T T"
Si      -0.83357560       1.24555296      -1.71292819       0.00000000
Si      -1.83236438      -1.02247444       0.94216915       0.00000000
Si       1.04042602       1.85351368       0.95187865       0.00000000
Si       1.74708623      -1.54207657      -0.45170233       0.00000000
H       -1.01208142       2.63283869      -1.10194127       0.00000000
Si      -0.42598350      -2.38568681       2.19688049       0.00000000
Si       1.49599216      -1.02653065      -2.75060234       0.00000000
Si       2.45765603       0.51007639       2.20591021       0.00000000
Si       1.06196140       1.26229256      -3.05157365       0.00000000
Si       0.99725752      -0.92655892       3.42141009       0.00000000
