10
Lattice="16.290000149 0.0 0.0 0.0 16.290000149 0.0 0.0 0.0 29.1751946751" Properties=species:S:1:pos:R:3:initial_magmoms:R:1 pbc="T T T"
Si       1.29283957       1.29870397      -1.50298933       0.00000000
Si       1.25726221      -1.64551808       1.15752585       0.00000000
Si      -1.00279612       1.76753018       1.26089356       0.00000000
Si      -1.30075651      -1.66965986      -1.17920302       0.00000000
H        0.21447414      -2.74398537       1.36962951       0.00000000
H       -3.06015798      -1.03353535       0.35529552       0.00000000
H       -2.48644046      -1.15652485      -1.97790315       0.00000000
H       -0.32759190      -1.19658196       3.17137284       0.00000000
H       -1.85800484       0.50085234      -3.08521849       0.00000000
Si      -2.52903881       2.76451077      -0.24475071       0.00000000
