10
Lattice="16.290000149 0.0 0.0 0.0 16.290000149 0.0 0.0 0.0 29.1751946751" Properties=species:S:1:pos:R:3:initial_magmoms:R:1 pbc="T T T"
H        0.71623873       0.08242740       1.32674198       0.00000000
H       -1.39711186       0.86244148       1.64568521       0.00000000
Si       1.60855606      -0.79218271      -1.52163228       0.00000000
Si      -1.87030379      -1.46577421      -0.15471606       0.00000000
Si      -0.34407738       1.95080897      -1.37202188       0.00000000
H        1.87331744       1.70724089       0.19617401       0.00000000
H        2.51890643       1.27638667       0.24209577       0.00000000
Si      -0.77981860       0.93243961       3.03503715       0.00000000
Si       0.12202839      -1.80657731      -2.99115766       0.00000000
Si      -0.99758332      -3.24684138      -1.43953328       0.00000000
