10
Lattice="16.290000149 0.0 0.0 0.0 16.290000149 0.0 0.0 0.0 29.1751946751" Properties=species:S:1:pos:R:3:initial_magmoms:R:1 pbc="T T T"
Si       1.32028822       1.34415307       1.39119582       0.00000000
Si      -1.35668171       1.33892398      -1.38098158       0.00000000
Si       1.41859837      -1.37917657      -1.28710748       0.00000000
Si      -1.37594952      -1.35964486       1.35965743       0.00000000
Si       0.03179808      -2.65527002      -2.66446433       0.00000000
Si       2.67406868       2.65903301      -0.01040679       0.00000000
Si       0.12518865       2.53969247      -2.82079786       0.00000000
Si       2.62172891      -2.77575087       0.15421133       0.00000000
Si       2.67232565      -0.02301777       2.74752144       0.00000000
Si      -2.86425444      -0.04473234      -2.54861547       0.00000000
