10
Lattice="16.290000149 0.0 0.0 0.0 16.290000149 0.0 0.0 0.0 29.1751946751" Properties=species:S:1:pos:R:3:initial_magmoms:R:1 pbc="T T T"
Si      -1.67335769       1.68173075       0.25434935       0.00000000
Si       0.34661862      -0.24555546       2.36027325       0.00000000
Si       1.63968625       1.06108174      -1.42815495       0.00000000
Si      -1.06925932      -1.69002236      -1.38141629       0.00000000
H        1.88900471      -1.63584181       0.27100838       0.00000000
H        0.53555004       2.47089980       1.38739721       0.00000000
H       -1.09325449       0.05121576       2.80379456       0.00000000
Si      -2.41080599      -0.27407925      -2.75078323       0.00000000
Si       0.34915986       2.47557503      -2.78617274       0.00000000
Si      -3.53647758       0.84015676      -0.99697475       0.00000000
