10
Lattice="16.290000149 0.0 0.0 0.0 16.290000149 0.0 0.0 0.0 29.1751946751" Properties=species:S:1:pos:R:3:initial_magmoms:R:1 pbc="T T T"
Si       1.36713012      -1.26183970       1.43311736       0.00000000
Si      -1.17068607       1.59278848       1.28974783       0.00000000
Si       1.31264007       1.43334082      -1.34413039       0.00000000
Si      -1.46501673      -1.37795482      -1.34806905       0.00000000
Si      -0.52787583       2.60873764      -2.27636539       0.00000000
Si      -1.45931523       3.41971086      -0.27970259       0.00000000
Si      -0.01222727      -2.57575853      -2.70611601       0.00000000
Si       2.82782185      -2.45516366       0.07565128       0.00000000
Si      -2.65246000       0.29043441       2.66329266       0.00000000
Si       0.01269480      -2.69386103       2.69611475       0.00000000
