10
Lattice="16.290000149 0.0 0.0 0.0 16.290000149 0.0 0.0 0.0 29.1751946751" Properties=species:S:1:pos:R:3:initial_magmoms:R:1 pbc="T T T"
Si       1.31376706       1.33635391      -1.36519488       0.00000000
Si      -1.27435042      -1.46355877      -1.29832534       0.00000000
Si      -1.30222261       1.41312998       1.33849958       0.00000000
Si       1.23057919      -1.49221288       1.36111036       0.00000000
H       -1.92026522      -2.29006451      -0.22111880       0.00000000
Si      -2.59129919      -0.02640609       2.61934898       0.00000000
Si       2.54441657       2.69962932       0.07856880       0.00000000
Si      -0.15529257       2.62933634      -2.63729172       0.00000000
Si       2.69315405      -0.05916528      -2.66340352       0.00000000
Si       2.57116801      -2.79336036      -0.06418543       0.00000000
