10
Lattice="16.290000149 0.0 0.0 0.0 16.290000149 0.0 0.0 0.0 29.1751946751" Properties=species:S:1:pos:R:3:initial_magmoms:R:1 pbc="T T T"
Si       1.38680029       1.27609345       1.37735686       0.00000000
Si      -1.63542479       1.18109017      -1.21168785       0.00000000
Si       1.25046928      -1.34093906      -1.48858962       0.00000000
Si      -1.33657008      -1.40635481       1.35174979       0.00000000
Si      -2.96722353      -0.79597828      -1.70139349       0.00000000
Si      -2.67859437      -2.62290065      -0.13194307       0.00000000
Si      -0.03179808       2.65527002       2.66446433       0.00000000
Si       2.60299541      -2.72702617      -0.08561286       0.00000000
Si       2.58993083      -0.12048084       2.81867566       0.00000000
Si       3.25764165       2.08145477       0.17917654       0.00000000
