10
Lattice="16.290000149 0.0 0.0 0.0 16.290000149 0.0 0.0 0.0 29.1751946751" Properties=species:S:1:pos:R:3:initial_magmoms:R:1 pbc="T T T"
Si       0.96415624      -1.45538119      -1.51448436       0.00000000
Si      -1.65040508       0.97235011      -1.31618056       0.00000000
Si       1.49248981       1.28607922       1.28668444       0.00000000
Si      -1.26814393      -1.48444255       1.32292003       0.00000000
H       -1.15520536       1.19350315      -2.71658990       0.00000000
Si      -0.93120157      -2.94969549      -1.82948893       0.00000000
Si      -2.64719018      -2.49790862      -0.30919871       0.00000000
Si      -2.58225824      -0.07074747       2.62186330       0.00000000
H        0.10384875       2.94029616      -2.26437438       0.00000000
Si       0.14146236       2.63891486       2.62448790       0.00000000
