10
Lattice="16.290000149 0.0 0.0 0.0 16.290000149 0.0 0.0 0.0 29.1751946751" Properties=species:S:1:pos:R:3:initial_magmoms:R:1 pbc="T T T"
Si      -0.97919191       1.85961755      -0.89456982       0.00000000
Si      -1.76559167      -1.48385611       0.33332660       0.00000000
Si       0.38198421       0.64381339       2.22358746       0.00000000
Si       1.75703942      -0.97026499      -1.26287748       0.00000000
H       -0.38960793      -1.22342788      -2.57287289       0.00000000
Si       1.86896801      -1.22434012       2.57468175       0.00000000
Si       2.49538367      -2.29454426       0.52707907       0.00000000
Si      -2.46571958       0.84522295      -2.36409520       0.00000000
Si      -1.07699707      -3.53277324      -0.43403937       0.00000000
Si      -3.58533129      -0.59504113      -0.81247082       0.00000000
