10
Lattice="16.290000149 0.0 0.0 0.0 16.290000149 0.0 0.0 0.0 29.1751946751" Properties=species:S:1:pos:R:3:initial_magmoms:R:1 pbc="T T T"
Si       1.38380293      -1.35646831      -1.32220524       0.00000000
Si       1.33807690       1.32411637       1.40657406       0.00000000
Si      -1.35027811      -1.39825216       1.32324971       0.00000000
Si      -1.33405327       1.38456856      -1.37626104       0.00000000
Si      -0.01897785      -2.66224214      -2.66706559       0.00000000
Si      -2.65567727       2.70451469       0.04967952       0.00000000
Si       2.70474275       0.04742019      -2.66444099       0.00000000
Si      -2.70229925      -0.02888217       2.68246368       0.00000000
Si       2.68920209       2.72001424       0.09786236       0.00000000
Si      -2.73900062       0.01021383      -2.67345759       0.00000000
