10
Lattice="16.290000149 0.0 0.0 0.0 16.290000149 0.0 0.0 0.0 29.1751946751" Properties=species:S:1:pos:R:3:initial_magmoms:R:1 pbc="T T T"
H       -0.64558900       0.43085421      -0.04592176       0.00000000
Si       1.97903954       0.62517763       1.07936550       0.00000000
H       -1.80266771      -1.19395927       1.08464621       0.00000000
Si       0.75090385      -0.54625258      -2.49967233       0.00000000
Si       0.20657349       2.17763093       1.70806177       0.00000000
Si      -2.51890643      -1.27638667      -0.24209577       0.00000000
Si      -0.91035037      -2.06856938      -1.76372804       0.00000000
Si       2.61402374       0.29532141      -1.24834823       0.00000000
Si       1.22104954      -1.24414876       2.36307407       0.00000000
Si      -0.73541206       1.25465581      -2.61695661       0.00000000
