10
Lattice="16.290000149 0.0 0.0 0.0 16.290000149 0.0 0.0 0.0 29.1751946751" Properties=species:S:1:pos:R:3:initial_magmoms:R:1 pbc="T T T"
Si       1.33007851      -1.41953179      -1.28653856       0.00000000
Si      -1.34910523      -1.37365426       1.33686577       0.00000000
Si       1.38544822       1.35032698       1.32499147       0.00000000
Si      -1.30023523       1.34962651      -1.41826456       0.00000000
Si       2.66320325      -0.07918569      -2.61559997       0.00000000
Si       0.01451439       2.69612534       2.66363692       0.00000000
Si      -2.67789683       2.69824304      -0.06742387       0.00000000
Si      -2.70876638      -0.01612710       2.67676576       0.00000000
Si      -2.72849357      -0.05449005      -2.66073399       0.00000000
Si       0.03358998      -2.73281043       2.65931899       0.00000000
