10
Lattice="16.290000149 0.0 0.0 0.0 16.290000149 0.0 0.0 0.0 29.1751946751" Properties=species:S:1:pos:R:3:initial_magmoms:R:1 pbc="T T T"
Si       1.81973963      -0.88881499       1.14579742       0.00000000
Si      -0.87272047       1.78106717       1.28481722       0.00000000
Si       1.11961171       1.44026407      -1.55162438       0.00000000
Si      -1.02338668      -2.15003567      -0.39386513       0.00000000
H       -1.92854054      -0.58788982      -1.88935643       0.00000000
Si       2.60613938       2.45465867      -0.08209900       0.00000000
Si      -0.04895145      -2.55471348      -2.54585666       0.00000000
Si      -1.96143005       0.61025599       2.98260933       0.00000000
Si       0.99758332       3.24684138       1.43953328       0.00000000
H        3.19572336      -0.62838676      -1.76040207       0.00000000
