10
Lattice="16.290000149 0.0 0.0 0.0 16.290000149 0.0 0.0 0.0 29.1751946751" Properties=species:S:1:pos:R:3:initial_magmoms:R:1 pbc="T T T"
Si      -1.42887736       1.44417367       1.12155283       0.00000000
Si      -1.35969373      -1.30811959      -1.38943947       0.00000000
Si       1.34913781       1.39101940      -1.34555998       0.00000000
Si       1.33094188      -1.31543380       1.44288843       0.00000000
H       -0.58432231       2.37747665       1.93236067       0.00000000
Si      -2.70115895      -2.64103256      -0.01642563       0.00000000
Si       0.01386279      -2.66701511      -2.71040476       0.00000000
Si       2.71731863      -2.66536982       0.08863424       0.00000000
Si       2.73303848       0.04742019      -2.68096699       0.00000000
Si      -2.72367173       2.73768114      -0.30593109       0.00000000
