10
Lattice="16.290000149 0.0 0.0 0.0 16.290000149 0.0 0.0 0.0 29.1751946751" Properties=species:S:1:pos:R:3:initial_magmoms:R:1 pbc="T T T"
Si      -1.23219190       1.84979468       0.66493186       0.00000000
Si      -1.53503929      -0.71993656      -1.61061662       0.00000000
Si       1.61784136       0.66891628      -1.56737898       0.00000000
Si       0.07516206      -1.45968175       1.93273995       0.00000000
H        0.33589980      -2.56401019      -0.88642994       0.00000000
H        0.05388732       2.39474405       1.59982180       0.00000000
H        1.54733824      -0.40731516      -2.62769308       0.00000000
Si      -2.75356389      -2.03929625      -0.11375408       0.00000000
H       -0.27872190       3.09739692      -2.01504317       0.00000000
Si       2.32090148      -1.96840217       2.20894151       0.00000000
