10
Lattice="16.290000149 0.0 0.0 0.0 16.290000149 0.0 0.0 0.0 29.1751946751" Properties=species:S:1:pos:R:3:initial_magmoms:R:1 pbc="T T T"
Si      -1.37849239      -1.36374994      -1.30521068       0.00000000
Si      -1.38535048       1.31463559       1.35813449       0.00000000
Si       1.32919885      -1.36656811       1.37596053       0.00000000
Si       1.32497974       1.38647449      -1.38255413       0.00000000
Si      -2.69607647       0.02725317      -2.64674449       0.00000000
Si      -0.01490535       2.67626783       2.68551832       0.00000000
Si       2.68817582      -0.00120546       2.70690374       0.00000000
Si      -0.05159043      -2.72272691      -2.67166010       0.00000000
Si       2.74993122       0.02539611      -2.65243365       0.00000000
Si       2.69428457      -2.71414208       0.02587840       0.00000000
