10
Lattice="16.290000149 0.0 0.0 0.0 16.290000149 0.0 0.0 0.0 29.1751946751" Properties=species:S:1:pos:R:3:initial_magmoms:R:1 pbc="T T T"
Si       1.31049793       1.47585772      -1.27202157       0.00000000
Si       1.37352394      -1.34985457       1.36421752       0.00000000
Si      -1.38241828       1.37194381       1.35395076       0.00000000
Si      -1.17535609      -1.46919511      -1.44617355       0.00000000
Si       2.62461224       0.06216264      -2.57096484       0.00000000
Si      -2.58124501      -0.07390773      -2.71555710       0.00000000
Si      -2.65722645      -2.66996360      -0.00635727       0.00000000
Si       0.01974348      -2.66473451       2.76582013       0.00000000
Si       2.71744895       0.01928736       2.72844670       0.00000000
Si      -0.02080233       2.73984771       2.71829373       0.00000000
