10
Lattice="16.290000149 0.0 0.0 0.0 16.290000149 0.0 0.0 0.0 29.1751946751" Properties=species:S:1:pos:R:3:initial_magmoms:R:1 pbc="T T T"
Si       1.36037791      -1.35164647      -1.35291213       0.00000000
Si       1.37406151       1.36407574       1.33161424       0.00000000
Si      -1.35459496       1.35151615      -1.36904601       0.00000000
Si      -1.35379675      -1.34726446       1.37438507       0.00000000
Si       0.00050499       2.72297126       2.65257952       0.00000000
Si       2.68421735      -2.71609688       0.03970744       0.00000000
Si      -2.71406063      -2.69311169       0.00673947       0.00000000
Si      -2.72401382       0.03984534       2.68528492       0.00000000
Si       0.00065160      -2.69534342      -2.71644403       0.00000000
Si       2.71614575       0.02586852      -2.70894600       0.00000000
