10
Lattice="16.290000149 0.0 0.0 0.0 16.290000149 0.0 0.0 0.0 29.1751946751" Properties=species:S:1:pos:R:3:initial_magmoms:R:1 pbc="T T T"
Si      -1.38154074       1.16365987      -1.48717637       0.00000000
Si      -1.44769443      -1.19177641       1.40525243       0.00000000
Si       1.43381437      -1.30593673      -1.32843414       0.00000000
Si       1.25109922       1.48426336       1.37170679       0.00000000
H       -2.28759055       1.91440082      -0.52010620       0.00000000
Si       2.60835271       0.38110455      -2.55350056       0.00000000
Si      -0.04519058      -2.55057419       2.74816913       0.00000000
Si      -2.83183945      -2.51085917       0.02710376       0.00000000
Si       2.63264110       0.13991481       2.74107373       0.00000000
Si      -0.22661231       2.80016958      -2.67247701       0.00000000
