10
Lattice="16.290000149 0.0 0.0 0.0 16.290000149 0.0 0.0 0.0 29.1751946751" Properties=species:S:1:pos:R:3:initial_magmoms:R:1 pbc="T T T"
Si       0.51635391      -0.66505555       2.23773743       0.00000000
Si       1.18385947       2.05938182      -0.58207431       0.00000000
Si      -2.01145664       1.39110085       0.07926900       0.00000000
Si      -1.23269689      -1.57913632      -1.41517199       0.00000000
Si       2.17706078      -1.38448711      -1.02095676       0.00000000
H       -1.04376547       1.13731894      -2.38804803       0.00000000
H       -2.67257000      -1.28236510      -0.97165068       0.00000000
H       -1.58583151       2.68472234      -0.58630471       0.00000000
Si      -0.00097740       2.23578623      -2.60015170       0.00000000
H        2.86151772       1.54313542       1.11104976       0.00000000
