10
Lattice="16.290000149 0.0 0.0 0.0 16.290000149 0.0 0.0 0.0 29.1751946751" Properties=species:S:1:pos:R:3:initial_magmoms:R:1 pbc="T T T"
Si      -1.36132825      -1.39453804      -1.32003752       0.00000000
Si       1.29573756      -1.35343837       1.42914691       0.00000000
Si      -1.34965714       1.32789565       1.40624438       0.00000000
Si       1.37594952       1.35964486      -1.35965743       0.00000000
Si      -2.66100573      -2.68381336       0.15214864       0.00000000
Si      -2.81201403      -0.00985545      -2.54527024       0.00000000
Si       0.07117753      -2.70197997      -2.67237198       0.00000000
Si       2.69623775       2.70379793       0.03153839       0.00000000
Si       2.65082123      -2.74934803       0.13759022       0.00000000
Si      -2.67942972       2.73623133       0.09516949       0.00000000
