10
Lattice="16.290000149 0.0 0.0 0.0 16.290000149 0.0 0.0 0.0 29.1751946751" Properties=species:S:1:pos:R:3:initial_magmoms:R:1 pbc="T T T"
Si       1.30411225      -1.38039832       1.37511445       0.00000000
Si      -1.37297008      -1.38394954      -1.30976201       0.00000000
Si      -1.32364396       1.37078722       1.37380157       0.00000000
Si       1.35397594       1.34791606      -1.37394744       0.00000000
Si      -2.68312592       2.69622308      -0.01785522       0.00000000
Si       2.68304936      -0.01827738       2.70877095       0.00000000
Si      -2.69680952      -0.01949913      -2.70238158       0.00000000
Si      -0.00205254      -2.72384604      -2.67536535       0.00000000
Si       2.69631757       2.70881525      -0.01986831       0.00000000
Si      -2.66401775       0.02226843       2.74643613       0.00000000
