10
Lattice="16.290000149 0.0 0.0 0.0 16.290000149 0.0 0.0 0.0 29.1751946751" Properties=species:S:1:pos:R:3:initial_magmoms:R:1 pbc="T T T"
Si       1.81043804       1.32561994       0.60503519       0.00000000
Si      -0.73305001      -0.34392589       2.26268222       0.00000000
Si      -1.22140792       1.87125349      -0.95143227       0.00000000
Si       1.62072469      -1.52829035      -1.07717736       0.00000000
H        0.70571539      -2.52373968       0.99537012       0.00000000
H       -1.17252163      -2.94644889      -0.23929495       0.00000000
Si      -0.26782389      -2.86884333      -1.46097705       0.00000000
Si       0.47614041       2.87196449       1.76139403       0.00000000
Si      -1.46310265       1.84629721       2.66331600       0.00000000
Si      -1.15960366      -1.44990287      -3.05665597       0.00000000
