10
Lattice="16.290000149 0.0 0.0 0.0 16.290000149 0.0 0.0 0.0 29.1751946751" Properties=species:S:1:pos:R:3:initial_magmoms:R:1 pbc="T T T"
Si       1.36671472      -1.35733168       1.32840496       0.00000000
Si       1.36847404       1.34382727      -1.34302174       0.00000000
Si      -1.34017831      -1.36282141      -1.36516571       0.00000000
Si      -1.31834971       1.36273996       1.39086906       0.00000000
Si      -0.01371618       2.68936499      -2.67944988       0.00000000
Si      -0.00926901      -2.68749164       2.68385533       0.00000000
Si       2.71544528       0.00443088       2.67650318       0.00000000
Si      -2.69895166      -2.71464707      -0.00250907       0.00000000
Si      -2.69091906      -0.00364896      -2.72510906       0.00000000
Si       2.71857296      -0.02111184      -2.69890973       0.00000000
