10
Lattice="16.290000149 0.0 0.0 0.0 16.290000149 0.0 0.0 0.0 29.1751946751" Properties=species:S:1:pos:R:3:initial_magmoms:R:1 pbc="T T T"
Si      -1.34912152      -1.01928160       1.63293565       0.00000000
Si       1.23194755      -1.43019685      -1.41604725       0.00000000
Si      -1.35338950       1.31020471      -1.42590846       0.00000000
Si       1.42729723       1.27091323       1.40428965       0.00000000
Si       0.08501751      -2.64640321       2.55974406       0.00000000
Si      -0.06535548       2.53464257       2.68616017       0.00000000
Si       2.72267951       2.63078615      -0.04005754       0.00000000
Si      -1.45759663       0.71262235       3.43823834       0.00000000
Si      -2.74649403       2.66287745      -0.11255790       0.00000000
Si       2.61474050      -0.09246204      -2.79723014       0.00000000
