10
Lattice="16.290000149 0.0 0.0 0.0 16.290000149 0.0 0.0 0.0 29.1751946751" Properties=species:S:1:pos:R:3:initial_magmoms:R:1 pbc="T T T"
Si      -1.39152439      -1.34500015      -1.32986372       0.00000000
Si      -1.35876520       1.35594703       1.35457511       0.00000000
Si       1.33014367      -1.36930483       1.37304301       0.00000000
Si       1.36101322       1.34506531      -1.37114662       0.00000000
Si      -0.03644073      -2.74090981      -2.62142042       0.00000000
Si       2.70759350       2.70223409      -0.00898596       0.00000000
Si      -2.70176006       2.71430498      -0.00875256       0.00000000
Si       2.68980482      -2.72683199       0.03314302       0.00000000
Si       2.70330923      -0.02177973       2.71638568       0.00000000
Si      -0.01094688       2.71795394       2.70541580       0.00000000
