10
Lattice="16.290000149 0.0 0.0 0.0 16.290000149 0.0 0.0 0.0 29.1751946751" Properties=species:S:1:pos:R:3:initial_magmoms:R:1 pbc="T T T"
Si      -1.37039789      -1.37229079      -1.33018465       0.00000000
Si       1.34744202       1.35353123      -1.37639816       0.00000000
Si       1.40585796      -1.33865194       1.33269372       0.00000000
Si      -1.39634786       1.33738784       1.34824410       0.00000000
Si      -0.01741075       2.69950878       2.68190060       0.00000000
Si       0.06930581      -2.68884860       2.70331519       0.00000000
Si      -2.70251265      -0.00605988      -2.70223571       0.00000000
Si      -2.70046011       2.71778616      -0.02687035       0.00000000
Si      -0.00078844      -2.71224104      -2.71057981       0.00000000
Si       2.70293294       2.72151657      -0.03880301       0.00000000
