10
Lattice="16.290000149 0.0 0.0 0.0 16.290000149 0.0 0.0 0.0 29.1751946751" Properties=species:S:1:pos:R:3:initial_magmoms:R:1 pbc="T T T"
Si       0.61247143      -1.30694834       0.43783215       0.00000000
Si      -1.51583175       1.46678419       0.63100111       0.00000000
H        2.01487754       0.34174791      -1.41546374       0.00000000
Si      -0.03702717       2.66468564      -0.76085990       0.00000000
Si       1.10842048       1.24038577      -2.22434602       0.00000000
Si      -2.83153304      -0.23390811      -0.50741499       0.00000000
Si      -1.61495803      -1.51811235      -2.11493904       0.00000000
Si      -0.23428278      -2.96792400      -0.95904700       0.00000000
Si      -0.22763646       1.63879031       2.65540952       0.00000000
Si       2.92003140      -1.22039794       0.08002756       0.00000000
