10
Lattice="16.290000149 0.0 0.0 0.0 16.290000149 0.0 0.0 0.0 29.1751946751" Properties=species:S:1:pos:R:3:initial_magmoms:R:1 pbc="T T T"
Si      -1.28169721      -0.04069242      -0.81932699       0.00000000
Si       2.30969396      -0.20357613      -0.91496328       0.00000000
Si       2.16448490       0.21584250       1.44399709       0.00000000
Si       1.44489043       1.87071104      -1.71252558       0.00000000
H        1.29228571       2.66201408      -0.43713194       0.00000000
Si       0.64425322      -1.16227033       2.72437968       0.00000000
Si      -2.64200019      -1.42828278       0.51491301       0.00000000
Si      -0.80148430      -2.60367959       1.44714801       0.00000000
Si      -0.68033557      -1.55884550      -2.57792020       0.00000000
Si      -2.08023465       2.21570066      -0.60456838       0.00000000
