10
Lattice="16.28999089631971 0.0 0.0 0.0 16.28999089631971 0.0 0.0 0.0 34.49183129400761" Properties=species:S:1:pos:R:3:initial_magmoms:R:1 pbc="T T T"
Si       1.27729075      -1.35542574      -1.45459032       0.00000000
Si      -2.06369769      -1.15461891       0.06684521       0.00000000
Si      -0.04697547       2.22385934      -0.81642210       0.00000000
Si       1.32199051      -0.09682776       2.05226511       0.00000000
Si       3.34504561      -0.90220536      -0.45653413       0.00000000
Si      -1.32137868      -3.36945618       0.10733864       0.00000000
Si      -0.33460849       3.41392855       1.18451913       0.00000000
Si      -0.17998658      -1.21419144       3.50071588       0.00000000
Si       2.12945323       2.58066410      -1.63760408       0.00000000
Si       3.56556335       1.43197245      -0.13179336       0.00000000
