10
Lattice="16.28999089631971 0.0 0.0 0.0 16.28999089631971 0.0 0.0 0.0 34.49183129400761" Properties=species:S:1:pos:R:3:initial_magmoms:R:1 pbc="T T T"
Si       1.35790182       1.35564240      -1.35749576       0.00000000
Si      -1.35806472      -1.35661963      -1.35742678       0.00000000
Si      -1.35718506       1.35762978       1.35759924       0.00000000
Si       1.35752715      -1.35783911       1.35732330       0.00000000
Si       2.71608057      -0.00134230      -2.70916240       0.00000000
Si      -2.71438641       0.00065160       2.71478457       0.00000000
Si      -2.71376739      -0.00306252      -2.71578484       0.00000000
Si       2.71495656       2.71463565       0.00000000       0.00000000
Si       2.71482624      -0.00087966       2.71499153       0.00000000
Si      -0.00004887      -2.71490999       2.71502602       0.00000000
