10
Lattice="16.28999089631971 0.0 0.0 0.0 16.28999089631971 0.0 0.0 0.0 34.49183129400761" Properties=species:S:1:pos:R:3:initial_magmoms:R:1 pbc="T T T"
Si      -1.32879159       1.25796267      -1.48508112       0.00000000
Si      -1.88367786      -0.96674634       1.15130348       0.00000000
Si       1.38471516      -1.46522686      -1.45938469       0.00000000
Si       1.06518681       1.96146261       1.54047503       0.00000000
Si       2.97100278       0.45183573       1.90070792       0.00000000
Si      -0.81614529      -1.55654371       3.19729107       0.00000000
Si      -2.59553457       2.63034630      -0.00720880       0.00000000
Si       0.02798622       2.60205057      -2.85357978       0.00000000
Si      -2.69594613      -2.78488725      -0.13607035       0.00000000
Si      -0.83733858       3.47442894       1.53261089       0.00000000
