10
Lattice="16.28999089631971 0.0 0.0 0.0 16.28999089631971 0.0 0.0 0.0 34.49183129400761" Properties=species:S:1:pos:R:3:initial_magmoms:R:1 pbc="T T T"
Si       1.35599589      -1.35576783      -1.35939281       0.00000000
Si       1.35674523       1.35751086       1.35780619       0.00000000
Si      -1.35809730      -1.35728280       1.35808212       0.00000000
Si      -1.35734796       1.35793440      -1.36242810       0.00000000
Si      -2.71344159      -2.71463076       0.00100026       0.00000000
Si       2.69594613       0.00904095      -2.73326531       0.00000000
Si       2.71456560       2.71487511      -0.00017246       0.00000000
Si       2.71430496      -0.00011403       2.71550890       0.00000000
Si      -0.00027693      -2.71472850       2.71526746       0.00000000
Si      -0.00019548       2.71494027       2.71519848       0.00000000
