10
Lattice="16.28999089631971 0.0 0.0 0.0 16.28999089631971 0.0 0.0 0.0 34.49183129400761" Properties=species:S:1:pos:R:3:initial_magmoms:R:1 pbc="T T T"
Si       1.35518139       1.35596331      -1.35822009       0.00000000
Si      -1.36124127       1.35534429       1.35804763       0.00000000
Si       1.35729909      -1.36326123       1.35466743       0.00000000
Si      -1.35977517      -1.35902583      -1.35815111       0.00000000
Si       2.71153566      -2.71534752      -0.00117272       0.00000000
Si       2.71212210      -0.00146610      -2.71561238       0.00000000
Si       2.71477737       2.71381626      -0.00265587       0.00000000
Si       0.00710244       2.70418887       2.72461475       0.00000000
Si      -0.00273672       2.71329498      -2.71578484       0.00000000
Si       0.00052128      -2.70734913       2.72316609       0.00000000
