10
Lattice="16.28999089631971 0.0 0.0 0.0 16.28999089631971 0.0 0.0 0.0 34.49183129400761" Properties=species:S:1:pos:R:3:initial_magmoms:R:1 pbc="T T T"
Si      -1.42920315      -0.54349956      -1.77474368       0.00000000
Si      -0.33174585      -2.05674282       1.10380820       0.00000000
Si      -0.71620614       1.99001898       1.24129272       0.00000000
Si       2.46480732      -0.22211415      -0.24737555       0.00000000
Si       1.48452399       2.80331352       1.81265022       0.00000000
Si       2.35032120      -2.53154745      -1.31451892       0.00000000
Si      -3.49664850       0.67653999      -1.39040099       0.00000000
Si      -2.01722328       1.12751235       3.06139318       0.00000000
Si      -2.57548158      -2.48935635       1.42761770       0.00000000
Si       3.05836605       1.79927937      -1.52426386       0.00000000
