10
Lattice="16.28999089631971 0.0 0.0 0.0 16.28999089631971 0.0 0.0 0.0 34.49183129400761" Properties=species:S:1:pos:R:3:initial_magmoms:R:1 pbc="T T T"
Si      -1.22994387      -0.04082274       1.94247755       0.00000000
Si      -0.60461964      -1.80278172      -1.30634435       0.00000000
Si      -0.09770742       1.80788049      -1.48408085       0.00000000
Si       2.28819114      -0.04406445       0.51434248       0.00000000
Si       1.73639997       0.92378961      -2.72502865       0.00000000
Si       0.95633703      -1.36493910      -3.02838448       0.00000000
Si       2.19612006       1.41317379       2.39904617       0.00000000
Si      -0.85224393      -2.22407370       2.64704258       0.00000000
Si      -0.10122606       1.68624306       3.13810306       0.00000000
Si      -2.93213484      -1.44726876      -1.80288903       0.00000000
