10
Lattice="16.28999089631971 0.0 0.0 0.0 16.28999089631971 0.0 0.0 0.0 34.49183129400761" Properties=species:S:1:pos:R:3:initial_magmoms:R:1 pbc="T T T"
Si      -0.91502559       0.77537142      -1.97917688       0.00000000
Si      -1.52308242      -1.24856334       1.37078689       0.00000000
Si       1.18322415       1.58026032       1.38980570       0.00000000
Si       1.37108043      -1.28409183      -1.60659591       0.00000000
Si      -0.44255043      -2.57758299      -2.52290641       0.00000000
Si      -2.20736016      -0.96062130      -2.79763400       0.00000000
Si      -0.05447376      -2.44433079       2.85570935       0.00000000
Si       2.37588021       2.90372508      -0.25272179       0.00000000
Si       2.63884968       0.28883799       2.87291733       0.00000000
Si       3.02045922      -2.48909571      -0.21229734       0.00000000
