10
Lattice="16.28999089631971 0.0 0.0 0.0 16.28999089631971 0.0 0.0 0.0 34.49183129400761" Properties=species:S:1:pos:R:3:initial_magmoms:R:1 pbc="T T T"
Si      -1.60445097      -0.99755073      -1.36642712       0.00000000
Si      -1.39934358       1.23909885       1.44484982       0.00000000
Si       1.30567608      -1.48789602       1.43437465       0.00000000
Si       1.35550719       1.36405944      -1.73442068       0.00000000
Si      -0.31139964      -1.47545046      -3.34363796       0.00000000
Si       2.04436242      -0.56161404      -3.11844067       0.00000000
Si      -3.41493623       0.74668473      -1.48356145       0.00000000
Si      -2.77797443       2.60236008       0.00052083       0.00000000
Si      -0.04704552       2.57873958       2.81320707       0.00000000
Si       2.80442124       2.60640000      -0.10774564       0.00000000
