10
Lattice="16.28999089631971 0.0 0.0 0.0 16.28999089631971 0.0 0.0 0.0 34.49183129400761" Properties=species:S:1:pos:R:3:initial_magmoms:R:1 pbc="T T T"
Si      -1.35738054      -1.35786924       1.35756475       0.00000000
Si       1.35798327       1.35765747       1.35759924       0.00000000
Si      -1.36070370       1.35601218      -1.36011714       0.00000000
Si       1.35933534      -1.35791811      -1.36153131       0.00000000
Si      -2.71415835       2.71440270       0.00113823       0.00000000
Si      -2.71500543      -0.00048870       2.71495703       0.00000000
Si       2.71536381      -0.00019548       2.71475008       0.00000000
Si       0.00052128       2.71492398       2.71523297       0.00000000
Si       0.00053757      -2.71520091       2.71512949       0.00000000
Si       2.71529865      -2.71526607      -0.00024144       0.00000000
