10
Lattice="16.28999089631971 0.0 0.0 0.0 16.28999089631971 0.0 0.0 0.0 34.49183129400761" Properties=species:S:1:pos:R:3:initial_magmoms:R:1 pbc="T T T"
Si      -1.88840196       0.52458687       1.33924957       0.00000000
Si      -0.68201343      -1.63152495      -1.61190765       0.00000000
Si       0.27735354       2.13319179      -1.05789955       0.00000000
Si       1.87323597      -0.88109352       1.22018371       0.00000000
Si       1.52958213      -0.56511639      -2.79891020       0.00000000
Si       0.28375551      -3.60816984      -0.51303179       0.00000000
Si       2.06259093       1.74628800      -2.55532875       0.00000000
Si       3.43389942       0.83908161       1.20124768       0.00000000
Si       2.48448564      -2.79487530       0.05832572       0.00000000
Si      -3.75473097       0.19536597      -0.13469068       0.00000000
