10
Lattice="16.28999089631971 0.0 0.0 0.0 16.28999089631971 0.0 0.0 0.0 34.49183129400761" Properties=species:S:1:pos:R:3:initial_magmoms:R:1 pbc="T T T"
Si      -0.43289046      -1.58842161       1.68389214       0.00000000
Si       1.88840196      -0.52458687      -1.33924957       0.00000000
Si      -1.86632901      -0.32922090      -1.47394025       0.00000000
Si       0.54897300       2.10971790       1.00633423       0.00000000
Si       2.16575550       1.60860492      -2.39714912       0.00000000
Si      -1.29510387       2.73015513       2.23438208       0.00000000
Si      -2.20310847       1.71378945      -2.57171238       0.00000000
Si       1.45792242      -1.53655425       3.17356068       0.00000000
Si      -1.17402030      -1.92305079      -3.09540215       0.00000000
Si       1.20638853      -2.15611182      -2.95115723       0.00000000
