10
Lattice="16.28999089631971 0.0 0.0 0.0 16.28999089631971 0.0 0.0 0.0 34.49183129400761" Properties=species:S:1:pos:R:3:initial_magmoms:R:1 pbc="T T T"
Si      -2.25122913      -0.59411259      -0.38727450       0.00000000
Si       0.38923326       1.43606124      -1.86883745       0.00000000
Si      -0.09883143       1.43177697       1.94099440       0.00000000
Si       1.31887098      -2.00052603       0.31653171       0.00000000
Si       1.90016334       2.67201612       1.20411050       0.00000000
Si       1.01731050      -1.91213649       2.77131672       0.00000000
Si       1.92570606       0.20393451      -3.22553990       0.00000000
Si       1.18449477       3.49684398      -0.90382445       0.00000000
Si       0.19015317      -3.72759183      -0.87909380       0.00000000
Si      -1.67215221       1.66299723      -3.04921756       0.00000000
