10
Lattice="16.28999089631971 0.0 0.0 0.0 16.28999089631971 0.0 0.0 0.0 34.49183129400761" Properties=species:S:1:pos:R:3:initial_magmoms:R:1 pbc="T T T"
Si       0.68885523      -1.92567348      -1.38402000       0.00000000
Si       1.44891405       1.24234056       1.62667503       0.00000000
Si      -1.35550719      -1.36405944       1.73442068       0.00000000
Si      -0.42728670       1.41823998      -2.21434231       0.00000000
Si      -1.66690683      -2.83950990      -1.60921729       0.00000000
Si       2.39186070      -2.94754518       0.04877148       0.00000000
Si      -2.95995816      -2.36161017       0.36799355       0.00000000
Si       3.22670691       2.36141469       0.39879478       0.00000000
Si      -0.03417642       2.57298921       3.15304979       0.00000000
Si       2.66706396      -0.13828581       3.17078206       0.00000000
