10
Lattice="16.28999089631971 0.0 0.0 0.0 16.28999089631971 0.0 0.0 0.0 34.49183129400761" Properties=species:S:1:pos:R:3:initial_magmoms:R:1 pbc="T T T"
Si       1.21814991      -1.38062637       1.54410702       0.00000000
Si       1.77779286       1.11907413      -1.22788026       0.00000000
Si      -1.44891405      -1.24234056      -1.62667503       0.00000000
Si      -1.48309047       1.33064865       1.52637476       0.00000000
Si       2.49153921      -2.69552259       0.02877310       0.00000000
Si      -2.65114863       2.76195321      -0.03787895       0.00000000
Si      -2.80442124      -2.60640000       0.10774564       0.00000000
Si       2.67889050       2.76030792       0.22691844       0.00000000
Si       2.58181839      -0.02533095       2.92198747       0.00000000
Si       0.90743445       2.63339253      -2.75159225       0.00000000
