10
Lattice="16.28999089631971 0.0 0.0 0.0 16.28999089631971 0.0 0.0 0.0 34.49183129400761" Properties=species:S:1:pos:R:3:initial_magmoms:R:1 pbc="T T T"
Si      -1.84407687       0.62043723       1.22804785       0.00000000
Si      -0.54897300      -2.10971790      -1.00633423       0.00000000
Si       0.61678827       2.07453150      -1.04872472       0.00000000
Si       1.92915954      -0.03743442       1.44758848       0.00000000
Si       2.56950315       1.15457004      -1.93116422       0.00000000
Si       0.57907692       3.41440029       0.91017095       0.00000000
Si       3.65803353      -0.03271032      -0.15283339       0.00000000
Si      -1.62355914       2.95461504       1.55278862       0.00000000
Si       1.33942896      -2.63430477      -2.34558381       0.00000000
Si       1.61678250      -0.50111298      -3.40348335       0.00000000
