10
Lattice="16.28999089631971 0.0 0.0 0.0 16.28999089631971 0.0 0.0 0.0 34.49183129400761" Properties=species:S:1:pos:R:3:initial_magmoms:R:1 pbc="T T T"
Si       0.78464043       1.21725396       1.82630900       0.00000000
Si      -0.71566857       0.82482786      -2.10793496       0.00000000
Si       1.81099188      -1.14116337      -1.08356149       0.00000000
Si      -1.99899477      -1.24023915       0.73688390       0.00000000
Si       2.38140252       2.47702482       0.46184588       0.00000000
Si      -1.90016334      -2.67201612      -1.20411050       0.00000000
Si      -1.51093008      -1.23595488      -3.07294795       0.00000000
Si       1.65499884      -0.29706444       3.35002099       0.00000000
Si       2.76196950       0.46903797      -2.58416394       0.00000000
Si       3.39602517      -1.14554538       1.33266163       0.00000000
