10
Lattice="16.28999089631971 0.0 0.0 0.0 16.28999089631971 0.0 0.0 0.0 34.49183129400761" Properties=species:S:1:pos:R:3:initial_magmoms:R:1 pbc="T T T"
Si       1.79664039       1.01766888      -1.04731607       0.00000000
Si       1.43884683      -1.26229581       1.35053531       0.00000000
Si      -1.27749438       1.47390291       1.31618487       0.00000000
Si      -0.89588484      -1.30403079      -1.76902980       0.00000000
Si       0.84251880       1.07474904      -3.15156665       0.00000000
Si      -2.48520240      -2.60468140      -0.20887230       0.00000000
Si       0.09954819      -2.60883861       2.69795600       0.00000000
Si      -2.61744462       0.10909413       2.69005737       0.00000000
Si       3.57195717      -0.70073064      -1.06335995       0.00000000
Si       2.79663462      -2.64740682       0.05506279       0.00000000
