10
Lattice="16.28999089631971 0.0 0.0 0.0 16.28999089631971 0.0 0.0 0.0 34.49183129400761" Properties=species:S:1:pos:R:3:initial_magmoms:R:1 pbc="T T T"
Si      -1.35488817       1.35589137      -1.35180461       0.00000000
Si      -1.35542574      -1.35837679       1.35780619       0.00000000
Si       1.35866745       1.35707077       1.35742678       0.00000000
Si       1.36140417      -1.36236784      -1.35797865       0.00000000
Si      -0.01558953       2.70243417      -2.69922530       0.00000000
Si      -2.71306692       2.71287606      -0.00013797       0.00000000
Si      -2.71265967      -2.71507315       0.00013797       0.00000000
Si      -2.71344159      -0.00060544       2.71468110       0.00000000
Si       0.00177561       2.71481457       2.71481907       0.00000000
Si       0.00180819      -2.71538266       2.71475008       0.00000000
