10
Lattice="16.28999089631971 0.0 0.0 0.0 16.28999089631971 0.0 0.0 0.0 34.49183129400761" Properties=species:S:1:pos:R:3:initial_magmoms:R:1 pbc="T T T"
Si      -1.93199400      -1.32227233       0.23050904       0.00000000
Si       1.68547743      -1.35784806      -0.96780684       0.00000000
Si      -0.02682963       2.09119617      -1.19879876       0.00000000
Si       1.17446013       0.03860730       2.11083227       0.00000000
Si       3.10174632      -0.65479773       0.80597107       0.00000000
Si      -3.48245991       0.42420789       0.40431347       0.00000000
Si       2.35092393       2.16510390      -1.67582105       0.00000000
Si      -0.54244071      -0.89321328       3.48395284       0.00000000
Si      -2.56295457       2.34543420       1.37684569       0.00000000
Si      -1.37450133       1.36321236       3.23478371       0.00000000
