10
Lattice="16.28999089631971 0.0 0.0 0.0 16.28999089631971 0.0 0.0 0.0 34.49183129400761" Properties=species:S:1:pos:R:3:initial_magmoms:R:1 pbc="T T T"
Si       1.58074902      -0.14819013      -1.71296877       0.00000000
Si       0.21711312      -2.08872335       1.04206779       0.00000000
Si      -2.17316745      -0.12183291      -0.87347162       0.00000000
Si       0.49932108       1.78206084       1.47352635       0.00000000
Si      -3.44632869      -0.32553936       1.09259835       0.00000000
Si       0.39229578       0.83403171      -3.57090680       0.00000000
Si       2.41280964      -2.40461577      -1.46379965       0.00000000
Si       2.52297891      -2.58281860       0.93262515       0.00000000
Si      -0.02316438       3.76918020       0.41217761       0.00000000
Si      -2.91597516       2.01046293      -1.40850921       0.00000000
