10
Lattice="16.28999089631971 0.0 0.0 0.0 16.28999089631971 0.0 0.0 0.0 34.49183129400761" Properties=species:S:1:pos:R:3:initial_magmoms:R:1 pbc="T T T"
Si       1.34594496      -1.32638067      -1.49880887       0.00000000
Si      -1.37114559       1.34778573      -1.49094473       0.00000000
Si       0.78227838       2.01106566       1.21142278       0.00000000
Si      -0.51197841      -1.91378178       1.54140631       0.00000000
Si      -2.54453058      -2.74075992       0.06812140       0.00000000
Si       2.77995366      -2.55362040      -0.14207193       0.00000000
Si       2.66305662       2.75239098      -0.05653214       0.00000000
Si      -2.72183094       2.71228500      -0.12586076       0.00000000
Si       2.70073539       0.00640197      -2.85954687       0.00000000
Si      -0.01420488      -2.70876636      -2.85792575       0.00000000
