10
Lattice="16.28999089631971 0.0 0.0 0.0 16.28999089631971 0.0 0.0 0.0 34.49183129400761" Properties=species:S:1:pos:R:3:initial_magmoms:R:1 pbc="T T T"
Si       1.52132310       1.10796435      -1.41727014       0.00000000
Si      -1.10690550      -1.63025433      -1.35152867       0.00000000
Si       1.82249262      -0.01128897       1.67423443       0.00000000
Si      -1.77060897       1.74780297       0.26620810       0.00000000
Si      -1.17547011       1.84453299       2.76648786       0.00000000
Si       0.08731440       2.33520408      -2.77400708       0.00000000
Si       1.24292700       2.02693212       2.84036940       0.00000000
Si       2.97227340       2.32792245       0.01486599       0.00000000
Si       2.48596803      -2.86240712       0.08909245       0.00000000
Si      -2.61768897      -0.41410809      -2.76334910       0.00000000
