10
Lattice="16.28999089631971 0.0 0.0 0.0 16.28999089631971 0.0 0.0 0.0 34.49183129400761" Properties=species:S:1:pos:R:3:initial_magmoms:R:1 pbc="T T T"
Si      -1.27338930       1.31489622       1.51533392       0.00000000
Si       1.38287439       1.41309234      -1.39734562       0.00000000
Si       1.44091566      -1.39206195       1.50846659       0.00000000
Si      -1.54859256      -1.49436315      -1.60667666       0.00000000
Si      -2.49153921       2.69552259      -0.02877310       0.00000000
Si       2.72758131       2.56979637       0.14314463       0.00000000
Si      -2.62296693      -0.04606812       2.89076545       0.00000000
Si       2.72767905       0.08386092      -2.81744409       0.00000000
Si      -2.74124862      -2.81782791       0.03585083       0.00000000
Si       0.09027918       2.67019164       2.89321437       0.00000000
