10
Lattice="16.28999089631971 0.0 0.0 0.0 16.28999089631971 0.0 0.0 0.0 34.49183129400761" Properties=species:S:1:pos:R:3:initial_magmoms:R:1 pbc="T T T"
Si      -1.76572197       0.09785403      -1.56282575       0.00000000
Si      -0.39441348      -0.80935236       2.19375068       0.00000000
Si       1.25033895      -1.86227280      -0.77727385       0.00000000
Si       0.83735487       2.23891389      -0.01214113       0.00000000
Si       1.90757529      -0.74269368       2.72609790       0.00000000
Si      -3.55095936       0.48475782      -0.06539655       0.00000000
Si       2.89227321      -1.98395910       0.93183183       0.00000000
Si      -2.59823871       2.14044084       1.40692258       0.00000000
Si      -1.50970833       0.95316048       3.18525342       0.00000000
Si      -2.29873077      -2.21355036      -1.80640720       0.00000000
