10
Lattice="16.28999089631971 0.0 0.0 0.0 16.28999089631971 0.0 0.0 0.0 34.49183129400761" Properties=species:S:1:pos:R:3:initial_magmoms:R:1 pbc="T T T"
Si       0.61124967      -1.91378178      -1.16185799       0.00000000
Si       1.56066345       1.72017513      -0.01893603       0.00000000
Si      -0.46960812      -1.01496474       2.05167875       0.00000000
Si      -1.87323597       0.88109352      -1.22018371       0.00000000
Si      -1.58948046      -2.72707632      -1.73321549       0.00000000
Si       0.44536860       3.48268797       0.97256671       0.00000000
Si       1.48553397      -1.02879495      -3.20743168       0.00000000
Si      -2.55524940      -0.75043143      -2.83209136       0.00000000
Si       1.95507693       2.52952749      -2.21268671       0.00000000
Si      -1.24967106      -3.30369345       1.74832292       0.00000000
