10
Lattice="16.28999089631971 0.0 0.0 0.0 16.28999089631971 0.0 0.0 0.0 34.49183129400761" Properties=species:S:1:pos:R:3:initial_magmoms:R:1 pbc="T T T"
Si       1.95537015      -0.77939505      -1.08094011       0.00000000
Si      -1.66138452      -1.44407592       1.00661017       0.00000000
Si      -1.78500933       0.45996444      -1.63781103       0.00000000
Si       1.59536115       1.37777562       1.77805490       0.00000000
Si       3.04701192      -1.60230069       0.96063253       0.00000000
Si      -0.29792781      -3.21448941       1.64670993       0.00000000
Si       1.16897040      -2.93931873      -1.84728004       0.00000000
Si       1.68665031      -3.50415819       0.42642275       0.00000000
Si       2.69755884       0.73850715      -2.79404685       0.00000000
Si      -2.68091046      -0.20044845       2.98882233       0.00000000
