10
Lattice="16.28999089631971 0.0 0.0 0.0 16.28999089631971 0.0 0.0 0.0 34.49183129400761" Properties=species:S:1:pos:R:3:initial_magmoms:R:1 pbc="T T T"
Si       1.27208610      -1.43231454       1.33637985       0.00000000
Si      -1.45779210       1.29392946       1.32841913       0.00000000
Si       1.45455039       1.17960777      -1.43520732       0.00000000
Si      -0.90109764      -1.64123379      -1.45479869       0.00000000
Si      -1.77145605      -0.12691539      -2.97851068       0.00000000
Si       2.60115462       2.60360042       0.05969505       0.00000000
Si       2.62036053      -0.07609059       2.69641422       0.00000000
Si       2.35149408      -0.54752319      -2.89748933       0.00000000
Si      -2.68068240       2.64632583      -0.20424004       0.00000000
Si      -0.09593181       2.64216862       2.70258826       0.00000000
