10
Lattice="16.28999089631971 0.0 0.0 0.0 16.28999089631971 0.0 0.0 0.0 34.49183129400761" Properties=species:S:1:pos:R:3:initial_magmoms:R:1 pbc="T T T"
Si      -1.41402087       1.29821526       1.27461185       0.00000000
Si       1.34444628       1.36855548      -1.33952551       0.00000000
Si      -1.36422234      -1.34928441      -1.34031882       0.00000000
Si       1.30495932      -1.31487993       1.46386863       0.00000000
Si       2.02828419       0.56620782       2.69743517       0.00000000
Si      -0.57581892      -2.05620525       2.73182355       0.00000000
Si      -2.28346704      -0.37952442       2.60065104       0.00000000
Si       0.23315877       2.34703062       2.62386406       0.00000000
Si       2.70301599       0.01203831      -2.69698678       0.00000000
Si      -0.01104462      -2.70213633      -2.69802154       0.00000000
