10
Lattice="16.28999089631971 0.0 0.0 0.0 16.28999089631971 0.0 0.0 0.0 34.49183129400761" Properties=species:S:1:pos:R:3:initial_magmoms:R:1 pbc="T T T"
Si      -0.83735487      -2.23891389       0.01214113       0.00000000
Si       1.91021427       0.55695510       1.34345758       0.00000000
Si      -1.89723114       1.44570492       0.53703811       0.00000000
Si       0.13883967       0.35430750      -2.90448975       0.00000000
Si       1.95364341       2.90029996       1.18814078       0.00000000
Si       1.48975308      -0.67906494       3.31249385       0.00000000
Si      -2.60307684      -2.14105986      -1.55068462       0.00000000
Si      -3.43559358      -0.09847305       1.41906372       0.00000000
Si       0.53985060       2.77012006      -2.52107834       0.00000000
Si       2.14210242      -1.57913631      -2.81753580       0.00000000
