10
Lattice="16.28999089631971 0.0 0.0 0.0 16.28999089631971 0.0 0.0 0.0 34.49183129400761" Properties=species:S:1:pos:R:3:initial_magmoms:R:1 pbc="T T T"
Si      -1.65169197       1.12217249      -1.35108028       0.00000000
Si       1.16833413      -1.65453687      -1.44358742       0.00000000
Si      -0.30924936      -0.89226261       2.35358592       0.00000000
Si       0.65650559       2.24770723       1.02233845       0.00000000
Si      -2.26579239       0.39019437       2.47668733       0.00000000
Si       1.78899128      -0.00757485       2.94798398       0.00000000
Si      -0.04048065       2.18572378      -2.77528328       0.00000000
Si       3.19535585      -0.95608683       1.25815923       0.00000000
Si      -1.54078965       2.58241786       2.02187779       0.00000000
Si       2.48641505      -2.89316331       0.02341997       0.00000000
