10
Lattice="16.28999089631971 0.0 0.0 0.0 16.28999089631971 0.0 0.0 0.0 34.49183129400761" Properties=species:S:1:pos:R:3:initial_magmoms:R:1 pbc="T T T"
Si      -1.36021500      -1.34485353       1.39235668       0.00000000
Si       1.35426005       1.37024964       1.38666552       0.00000000
Si      -1.21261131       1.30968342      -1.59954577       0.00000000
Si       1.41871958      -1.33630128      -1.54218928       0.00000000
Si       0.69779097       2.25258120      -2.90972359       0.00000000
Si       2.50827623       0.50834574      -2.79258926       0.00000000
Si      -2.69369811      -2.68916949       0.03325704       0.00000000
Si      -2.70379791       2.71404432       0.00299734       0.00000000
Si       2.71305782      -2.70635544      -0.00537038       0.00000000
Si      -0.00491003      -2.70065394       2.74736903       0.00000000
