10
Lattice="16.28999089631971 0.0 0.0 0.0 16.28999089631971 0.0 0.0 0.0 34.49183129400761" Properties=species:S:1:pos:R:3:initial_magmoms:R:1 pbc="T T T"
Si      -1.38908088       1.24227540       1.48953057       0.00000000
Si      -2.01285756      -0.93566502      -0.90944352       0.00000000
Si       1.29210651      -1.48442625       1.45980549       0.00000000
Si       1.53923951       1.05020001      -1.74959709       0.00000000
Si      -2.65781124       2.65051332       0.12096292       0.00000000
Si       2.72333681       2.59514361      -0.08591575       0.00000000
Si      -0.05559777       2.58659136       2.84863020       0.00000000
Si       2.65987911      -0.12725748       2.84128344       0.00000000
Si       2.57921266      -2.96506670       0.04957169       0.00000000
Si      -3.78817434       0.78273450      -0.89339964       0.00000000
