10
Lattice="16.28999089631971 0.0 0.0 0.0 16.28999089631971 0.0 0.0 0.0 34.49183129400761" Properties=species:S:1:pos:R:3:initial_magmoms:R:1 pbc="T T T"
Si      -0.56565396      -2.11265010       0.74888706       0.00000000
Si      -0.35867322       1.40651118       1.84248567       0.00000000
Si      -1.37368683       0.25023069      -1.93130219       0.00000000
Si       2.14517864       0.41500404      -1.14895803       0.00000000
Si       1.39430997       2.57479740      -1.55451321       0.00000000
Si      -0.01974348      -3.17886318      -1.30962107       0.00000000
Si       1.92627688       1.32098868       2.65062973       0.00000000
Si      -0.79412121      -1.78799040      -3.09743716       0.00000000
Si      -0.39902355       2.05498350      -3.02314172       0.00000000
Si       1.69119654      -0.88787016      -3.29776583       0.00000000
