10
Lattice="16.28999089631971 0.0 0.0 0.0 16.28999089631971 0.0 0.0 0.0 34.49183129400761" Properties=species:S:1:pos:R:3:initial_magmoms:R:1 pbc="T T T"
Si       2.11054869      -0.66270978       0.70697946       0.00000000
Si      -1.82048895      -1.32009273       0.58963819       0.00000000
Si      -0.23576517       2.17640916       0.78900108       0.00000000
Si       0.81951732       0.06271650      -2.22410351       0.00000000
Si       1.47525498      -2.90520747       0.48778375       0.00000000
Si       3.10446742      -0.02280600      -1.41595945       0.00000000
Si      -1.74757491       1.71321930       2.51111020       0.00000000
Si       0.04836501       2.18742120      -2.85385572       0.00000000
Si      -0.93633291       3.42868662      -1.05958965       0.00000000
Si      -2.83695237      -1.89152964      -1.48587443       0.00000000
