10
Lattice="16.28999089631971 0.0 0.0 0.0 16.28999089631971 0.0 0.0 0.0 34.49183129400761" Properties=species:S:1:pos:R:3:initial_magmoms:R:1 pbc="T T T"
Si       0.36878931      -2.02776291       1.08959756       0.00000000
Si      -1.98457812       0.28966878       1.22028718       0.00000000
Si       1.36036161       1.90185750       0.53420978       0.00000000
Si      -0.51767991       0.56483946      -2.27370279       0.00000000
Si       0.26871984       2.72476314      -1.50736285       0.00000000
Si       1.73167587      -2.95318152      -0.51479087       0.00000000
Si      -1.03045653       0.23258862       3.32453776       0.00000000
Si       0.74486025      -1.48581090       3.30849387       0.00000000
Si      -1.68665031       3.50415819      -0.42642275       0.00000000
Si       1.04993937      -0.54222894      -3.76889002       0.00000000
