10
Lattice="16.28999089631971 0.0 0.0 0.0 16.28999089631971 0.0 0.0 0.0 34.49183129400761" Properties=species:S:1:pos:R:3:initial_magmoms:R:1 pbc="T T T"
Si      -0.97466328      -1.80475281       1.09183953       0.00000000
Si       1.79333352       0.51981390       1.46862851       0.00000000
Si      -1.48776570       1.85616405       0.23654511       0.00000000
Si       0.75468312      -1.50376248      -1.73366389       0.00000000
Si       2.54420219      -1.63997946       1.87418368       0.00000000
Si       2.09022009      -2.94285366      -0.27462411       0.00000000
Si       0.39902355      -2.05498350       3.02314172       0.00000000
Si      -2.69394246       1.84096548      -1.81230530       0.00000000
Si       2.06745286      -0.08428446      -3.11626972       0.00000000
Si       3.26808092       1.85189607       0.28780000       0.00000000
