10
Lattice="16.28999089631971 0.0 0.0 0.0 16.28999089631971 0.0 0.0 0.0 34.49183129400761" Properties=species:S:1:pos:R:3:initial_magmoms:R:1 pbc="T T T"
Si      -1.20617676      -0.01519857      -2.04885042       0.00000000
Si       1.48776570      -1.85616405      -0.23654511       0.00000000
Si       0.84414780       2.26380501       0.23782131       0.00000000
Si      -0.88497054      -0.25824537       2.29022439       0.00000000
Si       0.67460148       0.72612675      -3.31680533       0.00000000
Si       1.39792635       2.60721450      -2.08323879       0.00000000
Si       3.28109922      -1.33635015       1.23208339       0.00000000
Si       0.51310242      -3.66091686       0.85529442       0.00000000
Si      -2.60485245      -1.95429501       2.07275327       0.00000000
Si       2.61840573       2.17227150       1.99124903       0.00000000
