10
Lattice="16.28999089631971 0.0 0.0 0.0 16.28999089631971 0.0 0.0 0.0 34.49183129400761" Properties=species:S:1:pos:R:3:initial_magmoms:R:1 pbc="T T T"
Si       0.70056774      -1.25227746       1.84859073       0.00000000
Si      -2.30198877      -0.06665868      -0.53234722       0.00000000
Si       0.98469792      -1.24126542      -1.79426607       0.00000000
Si       0.41953266       2.30254263       0.57425482       0.00000000
Si      -1.90757529       0.74269368      -2.72609790       0.00000000
Si       2.70417258      -0.11824911       2.40390953       0.00000000
Si      -1.67754420       2.81312010       1.54833917       0.00000000
Si       0.93633291      -3.42868662       1.05958965       0.00000000
Si       1.96185357       2.09658816       2.36341609       0.00000000
Si      -0.65723634      -1.11957912      -3.50337175       0.00000000
