10
Lattice="16.28999089631971 0.0 0.0 0.0 16.28999089631971 0.0 0.0 0.0 34.49183129400761" Properties=species:S:1:pos:R:3:initial_magmoms:R:1 pbc="T T T"
Si       2.35442628      -0.06955830      -0.10578651       0.00000000
Si      -0.50192748       2.28916854       0.41210863       0.00000000
Si      -0.74218869      -1.51790220       1.71310674       0.00000000
Si      -1.42126992       0.31840434      -1.93540672       0.00000000
Si      -2.45529396       2.13278454      -0.91448243       0.00000000
Si       0.09053982       0.78159420      -3.65751583       0.00000000
Si       3.02166468      -0.32193927       2.21699819       0.00000000
Si       3.09416302       2.00151972      -0.95970125       0.00000000
Si       3.01563738      -1.94491197      -1.43962086       0.00000000
Si      -2.69755884      -0.73850715       2.79404685       0.00000000
