10
Lattice="16.28999089631971 0.0 0.0 0.0 16.28999089631971 0.0 0.0 0.0 34.49183129400761" Properties=species:S:1:pos:R:3:initial_magmoms:R:1 pbc="T T T"
Si      -1.31536863       0.96910839      -1.66592189       0.00000000
Si       2.34444069      -0.62690436      -0.50678876       0.00000000
Si      -1.78409709      -1.70732232       0.36871788       0.00000000
Si      -0.36846351       1.89003096       1.84769394       0.00000000
Si      -3.12890175      -0.37809090       1.78881635       0.00000000
Si       3.06731808      -0.95537592       1.78157307       0.00000000
Si      -3.48449616       1.17493254      -0.08785074       0.00000000
Si      -1.97293077       3.11712408       0.48681798       0.00000000
Si      -0.52724214      -3.32979003       1.60473335       0.00000000
Si       1.15691580      -1.89827370       3.09175088       0.00000000
