10
Lattice="16.28999089631971 0.0 0.0 0.0 16.28999089631971 0.0 0.0 0.0 34.49183129400761" Properties=species:S:1:pos:R:3:initial_magmoms:R:1 pbc="T T T"
Si       1.99485452       0.78775182      -0.97738419       0.00000000
Si      -1.29679803      -1.60480935      -1.30347950       0.00000000
Si       1.41731145      -1.25662689       1.55011205       0.00000000
Si      -1.25087652       1.43843716       1.56583344       0.00000000
Si       2.77594536      -2.59454088       0.11448190       0.00000000
Si       2.71578802       2.69068187       0.13342138       0.00000000
Si      -2.71252935      -2.71622718       0.17813316       0.00000000
Si      -2.65160475       2.77340738       0.29282891       0.00000000
Si       0.08156403      -2.61746091       2.92799595       0.00000000
Si      -2.63239884       0.09371637       2.92954808       0.00000000
