10
Lattice="16.28999089631971 0.0 0.0 0.0 16.28999089631971 0.0 0.0 0.0 34.49183129400761" Properties=species:S:1:pos:R:3:initial_magmoms:R:1 pbc="T T T"
Si      -0.75086867       2.15979336      -0.40555518       0.00000000
Si       2.26466186      -0.08060292       0.86971201       0.00000000
Si      -2.14517864      -0.41500404       1.14895803       0.00000000
Si      -0.45398210      -1.30287420      -2.14880780       0.00000000
Si       1.59590849      -0.48005001       3.10830210       0.00000000
Si      -2.54420219       1.63997946      -1.87418368       0.00000000
Si      -3.51886547      -0.16477335      -0.78234415       0.00000000
Si       3.23197835       2.05327305       0.66621009       0.00000000
Si       0.72387873       3.49187553      -1.58638368       0.00000000
Si      -0.21890176       0.90598464       3.79958777       0.00000000
