10
Lattice="16.28999089631971 0.0 0.0 0.0 16.28999089631971 0.0 0.0 0.0 34.49183129400761" Properties=species:S:1:pos:R:3:initial_magmoms:R:1 pbc="T T T"
Si       0.16498512       1.81584630       1.43906899       0.00000000
Si       0.20351097      -2.08437066       1.07700803       0.00000000
Si       2.13452335       0.00390960      -1.07062704       0.00000000
Si      -1.77425793       0.09153351      -1.75342772       0.00000000
Si       0.48018033       3.55302819      -0.18256537       0.00000000
Si       2.13744089      -2.17653948      -1.93999414       0.00000000
Si       0.66269349      -3.50862165      -0.75916563       0.00000000
Si       2.37996804       1.37795481       2.40615150       0.00000000
Si       3.61645235       0.02169828       0.83628941       0.00000000
Si      -1.86144201      -2.55220317       2.00808105       0.00000000
