10
Lattice="16.28999089631971 0.0 0.0 0.0 16.28999089631971 0.0 0.0 0.0 34.49183129400761" Properties=species:S:1:pos:R:3:initial_magmoms:R:1 pbc="T T T"
Si       0.74231901      -2.21483727       0.04049343       0.00000000
Si       2.06369769       1.15461891      -0.06684521       0.00000000
Si      -1.54232091       0.20595447      -1.78916127       0.00000000
Si      -1.26700362      -0.04875597       2.01349627       0.00000000
Si       1.74233737      -2.12894010       2.18298922       0.00000000
Si      -1.26128583      -3.34886562      -0.51482536       0.00000000
Si      -0.04351059       1.34348517       3.41945308       0.00000000
Si       3.34098845      -0.20080683      -1.52143553       0.00000000
Si      -1.96185357      -2.09658816      -2.36341609       0.00000000
Si      -3.63939777       0.71653194      -0.81507692       0.00000000
