10
Lattice="16.28999089631971 0.0 0.0 0.0 16.28999089631971 0.0 0.0 0.0 34.49183129400761" Properties=species:S:1:pos:R:3:initial_magmoms:R:1 pbc="T T T"
Si      -0.58903011      -2.25080559       0.30570127       0.00000000
Si      -2.00963214       0.95842215      -0.75947606       0.00000000
Si       1.35275418      -0.09255978      -1.95499809       0.00000000
Si      -1.24659225      -0.10278990       2.45844114       0.00000000
Si       0.76520646       3.52763927       0.47391803       0.00000000
Si       0.12926115      -1.48480092      -3.36095490       0.00000000
Si      -0.45748836      -3.27733623      -1.81965207       0.00000000
Si       1.92463092       2.13690658      -2.46578791       0.00000000
Si       0.72633852      -3.21991398       1.97162316       0.00000000
Si      -2.75815764      -2.04498144       1.88377242       0.00000000
