10
Lattice="16.28999089631971 0.0 0.0 0.0 16.28999089631971 0.0 0.0 0.0 34.49183129400761" Properties=species:S:1:pos:R:3:initial_magmoms:R:1 pbc="T T T"
Si       1.35675921       1.35671831       1.35690940       0.00000000
Si      -1.35776959       1.35571648      -1.35922036       0.00000000
Si      -1.35869812      -1.35882861       1.35690940       0.00000000
Si       1.36082031      -1.36079970      -1.36280751       0.00000000
Si      -2.68999837      -0.01809888      -2.72203821       0.00000000
Si       2.71341810      -0.00059959       2.71471559       0.00000000
Si      -0.00100760       2.71380889       2.71461212       0.00000000
Si      -0.00106448      -2.71560642       2.71454313       0.00000000
Si       2.71574757       2.71450936       0.00034492       0.00000000
Si      -2.71601350      -0.00092643       2.71437067       0.00000000
