10
Lattice="16.28999089631971 0.0 0.0 0.0 16.28999089631971 0.0 0.0 0.0 34.49183129400761" Properties=species:S:1:pos:R:3:initial_magmoms:R:1 pbc="T T T"
Si       1.29233457       1.73599272       0.81845712       0.00000000
Si      -0.81319680       0.64376451      -2.10959056       0.00000000
Si       1.76480973      -1.61696169       0.27472759       0.00000000
Si      -1.95473484      -0.72312939       1.24225849       0.00000000
Si       2.43077751       0.88751178      -1.83372474       0.00000000
Si      -0.54250587      -1.97242578       2.65290619       0.00000000
Si      -3.07660596       0.30069711      -1.54185470       0.00000000
Si       2.20736016       0.96062130       2.79763400       0.00000000
Si       0.68836653      -3.48022981       1.24018898       0.00000000
Si       3.57844059      -0.32347053       1.19103809       0.00000000
