10
Lattice="16.28999089631971 0.0 0.0 0.0 16.28999089631971 0.0 0.0 0.0 34.49183129400761" Properties=species:S:1:pos:R:3:initial_magmoms:R:1 pbc="T T T"
Si      -0.00822482       0.90051120       2.15046341       0.00000000
Si      -0.62113118      -2.17950426       0.66986623       0.00000000
Si       2.13744022       0.56161404      -0.84204955       0.00000000
Si      -1.61228061       0.49855545      -1.69910305       0.00000000
Si      -2.90608128      -2.09398176      -0.13827783       0.00000000
Si       1.80066076       2.60462439      -1.93982168       0.00000000
Si       0.64091050       3.16776969       1.86821659       0.00000000
Si      -3.67723359       0.03072294      -0.76803004       0.00000000
Si       1.19367907      -3.56553891      -0.02141944       0.00000000
Si      -1.15309809      -0.92569554      -3.53527672       0.00000000
