10
Lattice="16.28999089631971 0.0 0.0 0.0 16.28999089631971 0.0 0.0 0.0 34.49183129400761" Properties=species:S:1:pos:R:3:initial_magmoms:R:1 pbc="T T T"
Si      -1.35863391       1.33791399       1.43563015       0.00000000
Si       1.37863084      -1.36326123       1.44432900       0.00000000
Si      -0.63696181      -1.85567535      -1.48408227       0.00000000
Si       1.04571211       1.78968456      -1.49242930       0.00000000
Si      -0.78109084       3.38229270      -1.09186609       0.00000000
Si      -2.54736408      -2.79857313      -0.17390446       0.00000000
Si      -2.77594536       2.59454088      -0.11448190       0.00000000
Si       2.77797443      -2.60236008      -0.00052083       0.00000000
Si       0.02399680       2.69027721       2.81058224       0.00000000
Si      -2.69438133      -0.02292003       2.81351405       0.00000000
