10
Lattice="16.28999089631971 0.0 0.0 0.0 16.28999089631971 0.0 0.0 0.0 34.49183129400761" Properties=species:S:1:pos:R:3:initial_magmoms:R:1 pbc="T T T"
Si       1.35347746      -1.35550719       1.36335938       0.00000000
Si      -1.36082031       1.36079970       1.36280751       0.00000000
Si       1.37201548       1.35773047      -1.37980509       0.00000000
Si      -1.38263071      -1.35236322      -1.37495209       0.00000000
Si      -0.08415414       2.59494554      -2.79164277       0.00000000
Si       2.70693211      -2.71389771       0.00210400       0.00000000
Si       2.71150960       2.71451903       0.00403555       0.00000000
Si       2.71032043       0.00247608       2.71971691       0.00000000
Si      -2.71837813      -2.71319724       0.00293181       0.00000000
Si      -0.00435595      -2.71298547       2.71978589       0.00000000
