10
Lattice="10.86 0.0 0.0 0.0 10.86 0.0 0.0 0.0 10.86" Properties=species:S:1:pos:R:3:initial_magmoms:R:1 pbc="T T T"
Si      -1.25770746       1.40377446      -1.16572326       0.00000000
Si       1.45729254      -1.31122554      -1.16572326       0.00000000
Si       1.45729254       1.40377446       1.54927674       0.00000000
Si      -2.61520746       0.04627446      -2.52322326       0.00000000
Si       0.09979254      -2.66872554      -2.52322326       0.00000000
Si      -2.45383872       2.76461934       0.39038442       0.00000000
Si       0.09979254       2.76127446      -2.52322326       0.00000000
Si       2.81479254       0.04627446      -2.52322326       0.00000000
Si       2.81479254      -2.66872554       0.19177674       0.00000000
Si       2.81479254       2.76127446       0.19177674       0.00000000
