10
Lattice="10.86 0.0 0.0 0.0 10.86 0.0 0.0 0.0 10.86" Properties=species:S:1:pos:R:3:initial_magmoms:R:1 pbc="T T T"
Si       1.13814972       1.14084300      -1.44899550       0.00000000
Si       1.47046572      -1.20531882       1.16014122       0.00000000
Si      -1.35750000      -1.35750000      -1.35750000       0.00000000
Si      -1.35750000       1.35750000       1.35750000       0.00000000
Si       2.80603938       2.28592140      -0.09239688       0.00000000
Si       2.77385034      -0.22320558       2.54393328       0.00000000
Si       0.00000000      -2.71500000      -2.71500000       0.00000000
Si      -2.71500000       0.00000000      -2.71500000       0.00000000
Si       0.00000000       2.71500000       2.71500000       0.00000000
Si       0.00000000       2.71500000      -2.71500000       0.00000000
