10
Lattice="10.86 0.0 0.0 0.0 10.86 0.0 0.0 0.0 10.86" Properties=species:S:1:pos:R:3:initial_magmoms:R:1 pbc="T T T"
Si       1.40827050       1.19863992       1.51082148       0.00000000
Si       1.40827050      -1.51636008      -1.20417852       0.00000000
Si      -1.30672950      -1.51636008       1.51082148       0.00000000
Si       0.05386560       2.48619066      -2.41641516       0.00000000
Si      -2.55491274       2.72796684       0.18924636       0.00000000
Si      -0.06526860      -2.87173152      -2.41624140       0.00000000
Si       2.76577050       2.55613992       0.15332148       0.00000000
Si       2.76577050      -0.15886008      -2.56167852       0.00000000
Si       0.05077050       2.55613992       2.86832148       0.00000000
Si      -2.66422950      -0.15886008       2.86832148       0.00000000
