10
Lattice="10.86 0.0 0.0 0.0 10.86 0.0 0.0 0.0 10.86" Properties=species:S:1:pos:R:3:initial_magmoms:R:1 pbc="T T T"
Si       1.32964410      -1.32964410       1.26059622       0.00000000
Si       1.32041310       1.39458690      -1.37023878       0.00000000
Si      -1.39458690      -1.32041310      -1.37023878       0.00000000
Si      -1.39458690       1.39458690       1.34476122       0.00000000
Si       2.67791310       0.03708690      -2.72773878       0.00000000
Si      -0.03708690      -2.67791310      -2.72773878       0.00000000
Si       2.67791310       2.75208690      -0.01273878       0.00000000
Si      -2.75208690      -2.67791310      -0.01273878       0.00000000
Si      -0.03708690       2.75208690       2.70226122       0.00000000
Si      -2.75208690       0.03708690       2.70226122       0.00000000
