10
Lattice="16.28999089631971 0.0 0.0 0.0 16.28999089631971 0.0 0.0 0.0 34.529650657227435" Properties=species:S:1:pos:R:3:initial_magmoms:R:1 pbc="T T T"
Si       1.00002844      -2.09015361      -0.25693527       0.00000000
Si      -0.09337754       1.16545176      -2.01691255       0.00000000
Si      -1.97002042      -0.35196174       1.24993952       0.00000000
Si       1.27651861       1.24072785       1.55587240       0.00000000
Si       2.32626250       1.17209808      -2.14557010       0.00000000
Si      -1.87021159       2.69457777      -1.31854998       0.00000000
Si      -2.10126895       1.70849520       2.46631621       0.00000000
Si       2.71777636      -1.24668999      -2.21179801       0.00000000
Si      -3.64666867      -0.73694331      -0.32185105       0.00000000
Si       1.11391183       0.10520082       3.62547723       0.00000000
