10
Lattice="16.28999089631971 0.0 0.0 0.0 16.28999089631971 0.0 0.0 0.0 34.529650657227435" Properties=species:S:1:pos:R:3:initial_magmoms:R:1 pbc="T T T"
Si      -2.13740180       0.65624265       0.75005349       0.00000000
Si       0.16260678       1.13552703      -2.06960483       0.00000000
Si       1.54293993       1.29779172       1.27556054       0.00000000
Si       0.47183985      -2.32808535      -0.25223924       0.00000000
Si       0.06059880       2.91346766       2.15592900       0.00000000
Si       2.44446111       1.36158336      -2.30713443       0.00000000
Si       1.66856841      -2.44387467      -2.27398594       0.00000000
Si      -3.21518078       1.60329438      -1.15916102       0.00000000
Si      -1.11391183      -0.10520082      -3.62547723       0.00000000
Si      -1.90329821       1.81767078       2.76834723       0.00000000
