10
Lattice="16.28999089631971 0.0 0.0 0.0 16.28999089631971 0.0 0.0 0.0 34.529650657227435" Properties=species:S:1:pos:R:3:initial_magmoms:R:1 pbc="T T T"
Si       0.48759228       2.32052257      -0.44398250       0.00000000
Si       1.46039850      -1.63654227       1.20670838       0.00000000
Si       0.40943286      -1.55952315      -1.95845382       0.00000000
Si      -1.69043678       1.24895497       1.57524945       0.00000000
Si       0.11827680       2.30525233       2.72917819       0.00000000
Si       1.67975964      -3.23791443      -0.71562741       0.00000000
Si      -1.68276419      -2.54102823      -2.33679541       0.00000000
Si      -1.65492458       3.29368229      -1.31737597       0.00000000
Si       1.93275963       3.11459003       1.38374199       0.00000000
Si       2.89489590      -0.32604435       2.63887620       0.00000000
