10
Lattice="16.28999089631971 0.0 0.0 0.0 16.28999089631971 0.0 0.0 0.0 34.529650657227435" Properties=species:S:1:pos:R:3:initial_magmoms:R:1 pbc="T T T"
Si       1.35340578       1.36187023       1.38776470       0.00000000
Si      -1.36212093      -1.35320755       1.38814453       0.00000000
Si      -1.32664131       1.49686546      -1.38735034       0.00000000
Si       1.40911758      -1.38067249      -1.48727576       0.00000000
Si       2.71821456      -2.69623660       0.02140149       0.00000000
Si      -2.70743058      -2.71387867      -0.00165397       0.00000000
Si       2.71448415       2.71537375      -0.00667804       0.00000000
Si      -2.71603170       2.73220132       0.02733023       0.00000000
Si      -0.00457749      -2.70894280       2.75058171       0.00000000
Si       2.71182888       0.00360294       2.75130684       0.00000000
