10
Lattice="16.28999089631971 0.0 0.0 0.0 16.28999089631971 0.0 0.0 0.0 34.529650657227435" Properties=species:S:1:pos:R:3:initial_magmoms:R:1 pbc="T T T"
Si       1.91093103      -1.21542133       0.51742710       0.00000000
Si      -2.03497938      -0.43068154       1.18063848       0.00000000
Si       0.62905464       2.30102766       0.26404839       0.00000000
Si      -0.08720037       0.25920648      -2.68923976       0.00000000
Si      -2.19142854       1.27418751      -1.92558157       0.00000000
Si      -2.72912886       1.61963325       0.40745011       0.00000000
Si       2.20851675       1.07885412      -2.27236305       0.00000000
Si       3.48907365       0.18257832      -0.51980965       0.00000000
Si      -3.13582500      -1.69615341      -0.47160623       0.00000000
Si      -0.28440711      -2.11384646      -2.91471850       0.00000000
