10
Lattice="16.28999089631971 0.0 0.0 0.0 16.28999089631971 0.0 0.0 0.0 34.529650657227435" Properties=species:S:1:pos:R:3:initial_magmoms:R:1 pbc="T T T"
Si      -1.04713749      -1.85143995      -0.99252083       0.00000000
Si       2.10154032       0.52219224      -0.93147238       0.00000000
Si       0.65146968      -0.38957535       2.30817032       0.00000000
Si      -1.38364002       1.75044195      -0.97639548       0.00000000
Si       1.17020844      -2.65373874       1.67341139       0.00000000
Si       2.41650747       2.33592084       0.71400452       0.00000000
Si      -0.91338030      -3.32565237       0.84255848       0.00000000
Si       1.61047827       1.29525048      -3.14651617       0.00000000
Si      -3.35124396      -1.30808700      -1.18837312       0.00000000
Si       2.65818591       0.92193255       2.55781983       0.00000000
