10
Lattice="16.28999089631971 0.0 0.0 0.0 16.28999089631971 0.0 0.0 0.0 34.529650657227435" Properties=species:S:1:pos:R:3:initial_magmoms:R:1 pbc="T T T"
Si       1.42197039      -0.70221303      -1.77113036       0.00000000
Si      -1.34451144      -1.19785257       1.62427364       0.00000000
Si      -1.81672596      -0.22581198      -1.63763866       0.00000000
Si       1.31362560       1.43496981       1.56299038       0.00000000
Si       1.58995287       1.56827088      -2.64984140       0.00000000
Si       2.69720046      -2.42810595      -0.11380979       0.00000000
Si      -3.01011507      -2.06926983       0.13249034       0.00000000
Si      -2.28066516       2.07379845      -2.10302955       0.00000000
Si       0.10270845      -2.47601484       3.04868123       0.00000000
Si      -2.59942788       0.24816186       3.07532777       0.00000000
