10
Lattice="16.28999089631971 0.0 0.0 0.0 16.28999089631971 0.0 0.0 0.0 34.529650657227435" Properties=species:S:1:pos:R:3:initial_magmoms:R:1 pbc="T T T"
Si      -1.35617508      -1.35542574      -1.35853533       0.00000000
Si      -1.35088083       1.36018242       1.35960575       0.00000000
Si       1.36189287      -1.35089712       1.35957122       0.00000000
Si       1.35928647       1.35948195      -1.35805192       0.00000000
Si       0.00127062      -2.71274112      -2.71534419       0.00000000
Si      -2.71420722      -2.71511946      -0.00020718       0.00000000
Si      -2.71383255       0.00252495      -2.71586213       0.00000000
Si       2.71609686      -2.71397916      -0.00113948       0.00000000
Si       2.71568961       0.00249237      -2.71555136       0.00000000
Si      -2.71538010       2.71629234      -0.00069059       0.00000000
