10
Lattice="16.28999089631971 0.0 0.0 0.0 16.28999089631971 0.0 0.0 0.0 34.529650657227435" Properties=species:S:1:pos:R:3:initial_magmoms:R:1 pbc="T T T"
Si      -0.32154831       1.74563640      -1.54444308       0.00000000
Si       2.03468616       0.40514859       1.15933367       0.00000000
Si      -1.79828568       0.26086806       1.57648661       0.00000000
Si       0.33979311      -1.87512561      -1.50176441       0.00000000
Si       3.23152875       1.07575902      -0.71946020       0.00000000
Si       1.82444742       1.75959693      -2.54614880       0.00000000
Si       1.49817501       2.33116416       2.52546553       0.00000000
Si      -1.63945818      -3.09329181      -1.34800379       0.00000000
Si      -0.38652912       3.48793335       1.69751310       0.00000000
Si      -0.45960606       3.88166265      -0.57550601       0.00000000
