10
Lattice="16.28999089631971 0.0 0.0 0.0 16.28999089631971 0.0 0.0 0.0 34.529650657227435" Properties=species:S:1:pos:R:3:initial_magmoms:R:1 pbc="T T T"
Si      -1.43449740      -1.31049792      -1.43216782       0.00000000
Si       1.30688154      -1.41222897       1.46428590       0.00000000
Si      -1.41838659       1.29423237       1.48301825       0.00000000
Si       1.02812706       1.79952276      -1.30188738       0.00000000
Si      -0.96213627       3.44063438      -1.25513421       0.00000000
Si      -2.77661910       2.63129668       0.09030199       0.00000000
Si      -2.73550151      -2.67525783       0.07721179       0.00000000
Si       2.68767081       2.79851516       0.07858953       0.00000000
Si       2.65219119      -0.05155785       2.85408440       0.00000000
Si      -0.06322149       2.66496648       2.85591447       0.00000000
