10
Lattice="16.28999089631971 0.0 0.0 0.0 16.28999089631971 0.0 0.0 0.0 34.529650657227435" Properties=species:S:1:pos:R:3:initial_magmoms:R:1 pbc="T T T"
Si       1.35845568      -1.35780408      -1.36216095       0.00000000
Si      -1.35897696       1.35874890      -1.36157395       0.00000000
Si       1.35681039       1.35687555       1.37355574       0.00000000
Si      -1.35791811      -1.37036367       1.39382466       0.00000000
Si      -0.08415414       2.70026018       2.69086265       0.00000000
Si      -2.70949941      -2.71396287      -0.00127760       0.00000000
Si      -2.71630863       2.71687878      -0.00607722       0.00000000
Si       2.71772586      -2.71551042      -0.00466151       0.00000000
Si       2.72023452       2.71316466      -0.00466151       0.00000000
Si       0.00066789      -2.71466334      -2.71893527       0.00000000
