10
Lattice="16.28999089631971 0.0 0.0 0.0 16.28999089631971 0.0 0.0 0.0 34.529650657227435" Properties=species:S:1:pos:R:3:initial_magmoms:R:1 pbc="T T T"
Si       1.33434648       1.35956570       1.33902607       0.00000000
Si      -1.35358497       1.35431380      -1.35518596       0.00000000
Si       1.35733167      -1.35812988      -1.35549672       0.00000000
Si      -1.34921925      -1.35650088       1.39002639       0.00000000
Si       2.63215449      -0.01661860       2.69693987       0.00000000
Si      -2.71086777      -2.71454931       0.00552475       0.00000000
Si      -2.71404432      -0.00118556      -2.71268540       0.00000000
Si       0.00213399       2.71450763      -2.71316882       0.00000000
Si       0.00112401      -2.71560816      -2.71282352       0.00000000
Si       2.71614573      -0.00126831      -2.71334146       0.00000000
