10
Lattice="16.28999089631971 0.0 0.0 0.0 16.28999089631971 0.0 0.0 0.0 34.529650657227435" Properties=species:S:1:pos:R:3:initial_magmoms:R:1 pbc="T T T"
Si      -0.98235216       2.11862853       0.21898717       0.00000000
Si       1.38769623       0.38393901      -1.87264759       0.00000000
Si       1.77541452       0.25826166       1.57583055       0.00000000
Si      -1.75824486      -1.68682950       0.25213565       0.00000000
Si       0.46850040      -1.31606910      -3.13197918       0.00000000
Si       3.20018679      -1.01146239      -1.32359131       0.00000000
Si      -3.26420649       1.89257220       0.45651677       0.00000000
Si      -1.82294874      -0.59484564      -3.31115364       0.00000000
Si      -0.95545737       3.26104623      -1.78514941       0.00000000
Si       1.63735677       2.39428791       2.54476762       0.00000000
