10
Lattice="16.28999089631971 0.0 0.0 0.0 16.28999089631971 0.0 0.0 0.0 34.529650657227435" Properties=species:S:1:pos:R:3:initial_magmoms:R:1 pbc="T T T"
Si      -0.80767449      -1.77292215      -1.37227814       0.00000000
Si       0.49106205      -0.77305824       2.21504380       0.00000000
Si       1.86421131       0.97223607      -1.22915266       0.00000000
Si      -1.90643499       1.57942953      -0.00925395       0.00000000
Si      -2.13475563      -0.37797687      -2.76006011       0.00000000
Si       0.58805271       2.35041894      -2.73212561       0.00000000
Si      -2.99411829       0.45519147       2.17012070       0.00000000
Si      -1.61047827      -1.29525048       3.14651617       0.00000000
Si      -0.76602096       3.57572016      -1.23215674       0.00000000
Si       2.87279037       2.75164164      -0.10314012       0.00000000
