10
Lattice="16.28999089631971 0.0 0.0 0.0 16.28999089631971 0.0 0.0 0.0 34.529650657227435" Properties=species:S:1:pos:R:3:initial_magmoms:R:1 pbc="T T T"
Si       1.88209773       0.81230085       1.20815862       0.00000000
Si      -0.76053123      -1.83723507       1.38046168       0.00000000
Si       1.03689108      -0.87952968      -2.10358202       0.00000000
Si      -1.83342321       1.72107108       0.10224235       0.00000000
Si       1.00923066       1.40877549       3.36937066       0.00000000
Si      -1.21176423      -3.66130782      -0.14153712       0.00000000
Si       3.44414583      -1.07124669       1.38122133       0.00000000
Si      -2.32448526       2.49412932      -2.11280145       0.00000000
Si       2.97756765       2.75753862       0.05590354       0.00000000
Si      -0.47078100      -2.02453749      -3.51912584       0.00000000
