10
Lattice="16.28999089631971 0.0 0.0 0.0 16.28999089631971 0.0 0.0 0.0 34.529650657227435" Properties=species:S:1:pos:R:3:initial_magmoms:R:1 pbc="T T T"
Si      -2.10154032      -0.52219224       0.93147238       0.00000000
Si      -0.49106205       0.77305824      -2.21504380       0.00000000
Si       0.31496715       1.81372860       1.64547689       0.00000000
Si       1.83342321      -1.72107108      -0.10224235       0.00000000
Si       0.55664559       0.39974031       3.48929221       0.00000000
Si      -1.45007064      -0.91176759       3.23964269       0.00000000
Si      -3.48518034       1.22824971      -0.04492310       0.00000000
Si       1.07289198      -3.55830615       1.27821932       0.00000000
Si      -3.14867781      -2.37363219      -0.06104846       0.00000000
Si      -1.29873654      -0.99986391      -3.58732194       0.00000000
