10
Lattice="16.28999089631971 0.0 0.0 0.0 16.28999089631971 0.0 0.0 0.0 34.529650657227435" Properties=species:S:1:pos:R:3:initial_magmoms:R:1 pbc="T T T"
Si       1.14808662      -1.77767883      -0.98841180       0.00000000
Si      -0.57311478      -0.06773382       2.27036033       0.00000000
Si       1.79390367       0.92696616       1.20470566       0.00000000
Si       0.77744025       2.05394094      -1.18485109       0.00000000
Si       0.17560620      -0.95798232      -2.98101547       0.00000000
Si      -1.87444143       0.22115304      -2.59348898       0.00000000
Si      -1.68406020       2.37056967      -1.39931487       0.00000000
Si      -1.40467041       2.12719707       2.35012387       0.00000000
Si      -2.96033283       1.98531117       0.58234288       0.00000000
Si       1.57108905       0.94480371      -3.18470599       0.00000000
