10
Lattice="16.28999089631971 0.0 0.0 0.0 16.28999089631971 0.0 0.0 0.0 34.529650657227435" Properties=species:S:1:pos:R:3:initial_magmoms:R:1 pbc="T T T"
Si      -1.26159534      -1.44414108       1.59590061       0.00000000
Si       1.38362373       1.20300021       1.70412696       0.00000000
Si       1.13309982      -1.20831075      -2.01228558       0.00000000
Si      -1.27523007       1.72589292      -1.65732057       0.00000000
Si      -2.69720046       2.42810595       0.11380979       0.00000000
Si      -2.88168471      -2.53185696       0.23145238       0.00000000
Si       3.30102189       1.96626816       0.54464826       0.00000000
Si       2.34009108       0.57067128      -3.14368474       0.00000000
Si      -2.59449201      -0.04790889       3.16249102       0.00000000
Si       2.96515467       2.28177288      -1.68135322       0.00000000
