10
Lattice="16.28999089631971 0.0 0.0 0.0 16.28999089631971 0.0 0.0 0.0 34.529650657227435" Properties=species:S:1:pos:R:3:initial_magmoms:R:1 pbc="T T T"
Si      -1.35729909      -1.35553977       1.35767209       0.00000000
Si       1.35778779      -1.35130437      -1.36157395       0.00000000
Si       1.35840681       1.35940050       1.35743039       0.00000000
Si      -1.35677781       1.36019871      -1.36440538       0.00000000
Si       0.00065160      -2.71283886       2.71506795       0.00000000
Si      -2.71370223       0.00144981       2.71517154       0.00000000
Si       2.71451673      -2.71446786      -0.00041436       0.00000000
Si      -2.71658556      -2.71298547       0.00096683       0.00000000
Si       2.71528236       0.00237834       2.71444641       0.00000000
Si       0.00136836       2.71643895       2.71482624       0.00000000
