10
Lattice="16.28999089631971 0.0 0.0 0.0 16.28999089631971 0.0 0.0 0.0 34.529650657227435" Properties=species:S:1:pos:R:3:initial_magmoms:R:1 pbc="T T T"
Si       1.19684259       0.67061043      -1.87879387       0.00000000
Si      -2.03468616      -0.40514859      -1.15933367       0.00000000
Si      -0.53651115       1.92601557       1.36613186       0.00000000
Si       1.18985418      -1.97411994       0.86672925       0.00000000
Si      -0.08641845      -2.35937844       2.84838700       0.00000000
Si       1.77197733      -1.31370705      -2.99617399       0.00000000
Si       3.03979545       1.92681378      -1.02950211       0.00000000
Si      -2.35623447       1.34048781      -2.70377675       0.00000000
Si      -3.83297184      -0.14428053       0.41715294       0.00000000
Si      -1.69489305      -2.28027420      -2.66109807       0.00000000
