10
Lattice="16.28999089631971 0.0 0.0 0.0 16.28999089631971 0.0 0.0 0.0 34.529650657227435" Properties=species:S:1:pos:R:3:initial_magmoms:R:1 pbc="T T T"
Si      -2.12573097       0.99947295      -0.19947790       0.00000000
Si       0.56863503      -0.84378942       2.13417531       0.00000000
Si       0.22999851      -1.60764381      -1.73698052       0.00000000
Si       1.34113941       1.96604010      -0.53455382       0.00000000
Si      -1.84383252       1.14129369      -2.61248030       0.00000000
Si      -0.01167993      -0.19365552      -3.58079583       0.00000000
Si       0.75901626       1.30562721       3.32834942       0.00000000
Si       3.50829585       1.19791773      -0.31632631       0.00000000
Si       2.61868266      -2.02292478       1.74664882       0.00000000
Si       2.51600679      -2.31967971      -1.95914441       0.00000000
