10
Lattice="16.28999089631971 0.0 0.0 0.0 16.28999089631971 0.0 0.0 0.0 34.529650657227435" Properties=species:S:1:pos:R:3:initial_magmoms:R:1 pbc="T T T"
Si      -1.35690813      -1.35878148       1.35725774       0.00000000
Si       1.35840681       1.35684297       1.35774115       0.00000000
Si      -1.35754344       1.35573525      -1.36243719       0.00000000
Si       1.35778779      -1.35729909      -1.36440538       0.00000000
Si       0.00003258       2.71422582       2.71468812       0.00000000
Si      -2.71484253       2.71407596      -0.00027624       0.00000000
Si       2.71640637       2.71254574       0.00072512       0.00000000
Si      -2.71498914      -0.00011403       2.71520607       0.00000000
Si       2.71593396      -0.00105885       2.71482624       0.00000000
Si       0.00086337      -2.71604799       2.71517154       0.00000000
