10
Lattice="16.28999089631971 0.0 0.0 0.0 16.28999089631971 0.0 0.0 0.0 34.529650657227435" Properties=species:S:1:pos:R:3:initial_magmoms:R:1 pbc="T T T"
Si      -0.49223493      -0.44841483       2.24025046       0.00000000
Si       1.53762939       1.77991056       0.13725544       0.00000000
Si      -1.88470413       1.15676919      -0.82795243       0.00000000
Si       0.53651115      -1.92601557      -1.36613186       0.00000000
Si       3.62770155       0.79464249      -0.10030869       0.00000000
Si      -1.49817501      -2.33116416      -2.52546553       0.00000000
Si       1.20721932       3.10834933      -1.77323667       0.00000000
Si      -1.05924096      -2.69703756       2.42436266       0.00000000
Si      -1.91459628       3.30745548       0.02534478       0.00000000
Si       1.73335374      -1.25540514      -3.24492573       0.00000000
