10
Lattice="16.28999089631971 0.0 0.0 0.0 16.28999089631971 0.0 0.0 0.0 34.529650657227435" Properties=species:S:1:pos:R:3:initial_magmoms:R:1 pbc="T T T"
Si      -1.10252349      -1.38074040       1.64556464       0.00000000
Si       1.45896498      -1.50798159      -1.39820993       0.00000000
Si       1.54665405       1.29877794       1.59885635       0.00000000
Si      -1.94685048       1.23898712      -1.38491600       0.00000000
Si      -0.33940215      -0.18578745      -3.75299530       0.00000000
Si       1.98868320       0.11252140      -3.26647225       0.00000000
Si      -2.01407931      -3.34752984       0.32854981       0.00000000
Si       2.87958330      -2.75820651       0.11481115       0.00000000
Si      -2.51164107      -0.00006791       3.13284039       0.00000000
Si       2.70394452       2.20999004      -2.01176763       0.00000000
