10
Lattice="16.28999089631971 0.0 0.0 0.0 16.28999089631971 0.0 0.0 0.0 34.529650657227435" Properties=species:S:1:pos:R:3:initial_magmoms:R:1 pbc="T T T"
Si      -1.35718506      -1.35641524      -1.35812098       0.00000000
Si      -1.35299853       1.35833188       1.36095241       0.00000000
Si       1.35984033      -1.35757394       1.35642902       0.00000000
Si       1.35774210       1.35877171      -1.35753397       0.00000000
Si       2.71329891      -2.71388209      -0.00141572       0.00000000
Si       0.00053757      -2.71391467      -2.71527513       0.00000000
Si      -2.71446786       0.00079332      -2.71499889       0.00000000
Si      -2.71538010      -2.71458256      -0.00127760       0.00000000
Si       2.71555670       0.00109958      -2.71530966       0.00000000
Si       0.00029322       2.71620112      -2.71534419       0.00000000
