10
Lattice="16.28999089631971 0.0 0.0 0.0 16.28999089631971 0.0 0.0 0.0 34.529650657227435" Properties=species:S:1:pos:R:3:initial_magmoms:R:1 pbc="T T T"
Si      -1.15183332       1.51446501      -1.31243823       0.00000000
Si       1.09581105       0.24114087       2.05872798       0.00000000
Si       1.55854153      -1.22408110      -1.30487623       0.00000000
Si      -1.98474102      -0.66166722       1.37918408       0.00000000
Si      -0.81798606      -0.69949260       3.40832013       0.00000000
Si      -2.53013022      -2.62670453       0.14015593       0.00000000
Si      -2.49715926       0.14258637      -2.67694719       0.00000000
Si       0.21567960      -2.57331944      -2.68147058       0.00000000
Si       3.02315426       1.71159030       1.40466697       0.00000000
Si       0.89647521       2.64860739       2.51811071       0.00000000
