10
Lattice="16.28999089631971 0.0 0.0 0.0 16.28999089631971 0.0 0.0 0.0 34.529650657227435" Properties=species:S:1:pos:R:3:initial_magmoms:R:1 pbc="T T T"
Si      -1.16675496       0.03782538      -2.02913605       0.00000000
Si      -0.57347316       1.70518833       1.50915376       0.00000000
Si      -0.20782782      -2.07670526       1.22055477       0.00000000
Si       1.91379711       0.94063347      -1.34959215       0.00000000
Si       1.58139152       2.68952787       1.38781649       0.00000000
Si       0.81798606       0.69949260      -3.40832013       0.00000000
Si       3.38668190       1.09802745       0.75378270       0.00000000
Si       0.19756512      -1.36191893       3.46301513       0.00000000
Si      -0.96759342       0.67719159       3.58642417       0.00000000
Si       1.71446127       3.34809999      -0.89020942       0.00000000
