10
Lattice="16.28999089631971 0.0 0.0 0.0 16.28999089631971 0.0 0.0 0.0 34.529650657227435" Properties=species:S:1:pos:R:3:initial_magmoms:R:1 pbc="T T T"
Si       1.16675496      -0.03782538       2.02913605       0.00000000
Si      -0.54538920      -1.96503731      -1.23902815       0.00000000
Si       1.98474102       0.66166722      -1.37918408       0.00000000
Si      -1.81397295       1.85907996       0.05348646       0.00000000
Si       3.08055207       0.90280809       0.67954390       0.00000000
Si      -1.87637994      -0.58355178      -2.69586945       0.00000000
Si       0.83290770       2.17613223      -2.69162230       0.00000000
Si      -3.32164503       0.71407215      -1.36205736       0.00000000
Si      -0.56174436       3.42834453      -1.21102458       0.00000000
Si       0.59328180       1.66736295       3.53828981       0.00000000
