10
Lattice="16.28999089631971 0.0 0.0 0.0 16.28999089631971 0.0 0.0 0.0 34.529650657227435" Properties=species:S:1:pos:R:3:initial_magmoms:R:1 pbc="T T T"
Si       0.39412026       1.02799674      -2.07727041       0.00000000
Si       1.16515854      -2.03911052      -0.12340904       0.00000000
Si      -2.34976734      -0.50187861      -0.29567756       0.00000000
Si       0.48659859       1.48339998       1.86529277       0.00000000
Si      -1.75734891       2.26413081       1.87879387       0.00000000
Si      -3.15292950       0.32935122       1.74968744       0.00000000
Si       0.75976560      -2.75389685      -2.36586940       0.00000000
Si       0.96759342      -0.67719159      -3.58642417       0.00000000
Si      -1.16792784       2.91154428      -2.25033312       0.00000000
Si       1.16701560       0.10246410       3.71080004       0.00000000
