10
Lattice="16.28999089631971 0.0 0.0 0.0 16.28999089631971 0.0 0.0 0.0 34.529650657227435" Properties=species:S:1:pos:R:3:initial_magmoms:R:1 pbc="T T T"
Si       0.74539782      -0.09127287       2.34998575       0.00000000
Si       2.51027271       0.10801899      -0.27758402       0.00000000
Si      -1.48729329       2.05003134      -0.02748562       0.00000000
Si      -0.71526132      -2.09746863      -1.25470462       0.00000000
Si       2.61024444      -0.79507580      -2.49815256       0.00000000
Si      -1.15729047      -0.91121210       3.61062398       0.00000000
Si       0.87649974      -2.31349670      -3.08294705       0.00000000
Si      -1.24497954      -3.71797163       0.61355771       0.00000000
Si      -3.01449708       1.78339662      -1.90496736       0.00000000
Si      -0.28030203       3.82901337      -1.15888478       0.00000000
