10
Lattice="16.28999089631971 0.0 0.0 0.0 16.28999089631971 0.0 0.0 0.0 34.529650657227435" Properties=species:S:1:pos:R:3:initial_magmoms:R:1 pbc="T T T"
Si       1.35766816       1.35640314      -1.35922593       0.00000000
Si      -1.35806472      -1.35998694      -1.35894969       0.00000000
Si      -1.35962856       1.35839052       1.36260984       0.00000000
Si       1.36025692      -1.36435266       1.35815551       0.00000000
Si       2.71421115       2.71270854      -0.00314220       0.00000000
Si      -0.00891063      -2.70283680       2.72439096       0.00000000
Si      -0.00060273       2.71342530      -2.71651819       0.00000000
Si       2.71398472      -0.00148239      -2.71669084       0.00000000
Si       2.71434636      -2.71679733      -0.00148478       0.00000000
Si      -2.71855665       2.71376739      -0.00269331       0.00000000
