10
Lattice="16.28999089631971 0.0 0.0 0.0 16.28999089631971 0.0 0.0 0.0 34.529650657227435" Properties=species:S:1:pos:R:3:initial_magmoms:R:1 pbc="T T T"
Si      -1.35892809       1.35537687      -1.36530315       0.00000000
Si       1.35962856      -1.35839052      -1.36260984       0.00000000
Si       1.36778985       1.34500014       1.39078605       0.00000000
Si      -1.35938421      -1.36358703       1.39095869       0.00000000
Si      -2.71112841       2.71124244      -0.00711311       0.00000000
Si      -2.71466334      -2.71740006      -0.00441980       0.00000000
Si       2.71730539       2.71477737      -0.00818353       0.00000000
Si       0.00079821       2.71301805      -2.72211200       0.00000000
Si      -2.71383255      -0.00219915      -2.72149047       0.00000000
Si       2.71729672      -0.00198738      -2.72183576       0.00000000
