10
Lattice="16.28999089631971 0.0 0.0 0.0 16.28999089631971 0.0 0.0 0.0 34.529650657227435" Properties=species:S:1:pos:R:3:initial_magmoms:R:1 pbc="T T T"
Si      -1.75604571      -0.98839575       1.20715726       0.00000000
Si       0.81173070       1.67107707       1.45155827       0.00000000
Si      -1.32683679       1.33012737      -1.43850605       0.00000000
Si       1.39649283      -1.39041666      -1.39658703       0.00000000
Si      -0.46719720      -1.41095835       3.08608925       0.00000000
Si       2.58074325       2.55133980       0.01008266       0.00000000
Si      -2.75014296       2.53540818      -0.01208538       0.00000000
Si       0.89529840       0.48505104       3.61308107       0.00000000
Si      -0.87583185       3.50528220       1.27483541       0.00000000
Si      -3.54123423       0.67271184       1.31395753       0.00000000
