10
Lattice="16.28999089631971 0.0 0.0 0.0 16.28999089631971 0.0 0.0 0.0 34.529650657227435" Properties=species:S:1:pos:R:3:initial_magmoms:R:1 pbc="T T T"
Si       1.35739760      -1.35744570       1.35729227       0.00000000
Si       1.35821619       1.35699713      -1.35708509       0.00000000
Si      -1.35772263       1.35749943       1.35715415       0.00000000
Si      -1.35912357      -1.35596331      -1.35736133       0.00000000
Si       2.71276134       0.00003258       2.71385941       0.00000000
Si      -2.71687878       0.00301365      -2.71095892       0.00000000
Si       2.71320931       0.00369783      -2.71527513       0.00000000
Si      -0.00053757       2.71391467       2.71527513       0.00000000
Si       2.71468519      -2.71464705      -0.00010359       0.00000000
Si      -2.71500543      -2.71459818      -0.00017265       0.00000000
