10
Lattice="16.28999089631971 0.0 0.0 0.0 16.28999089631971 0.0 0.0 0.0 34.529650657227435" Properties=species:S:1:pos:R:3:initial_magmoms:R:1 pbc="T T T"
Si       1.67664825       0.38498157       1.57179058       0.00000000
Si      -1.77670143      -1.47351195       0.48738629       0.00000000
Si      -0.48425283       2.28115386      -0.52326262       0.00000000
Si       1.16631513      -1.28611179      -1.89933903       0.00000000
Si       3.64666867       0.73694331       0.32185105       0.00000000
Si       1.71795969      -1.52140455       2.95971066       0.00000000
Si      -1.37052657      -3.54729411      -0.47595697       0.00000000
Si      -1.61275887       3.31079589       1.26281909       0.00000000
Si       1.77645708       3.43152108      -0.99669892       0.00000000
Si      -0.19618047      -3.18212118      -2.42633085       0.00000000
