10
Lattice="16.28999089631971 0.0 0.0 0.0 16.28999089631971 0.0 0.0 0.0 34.529650657227435" Properties=species:S:1:pos:R:3:initial_magmoms:R:1 pbc="T T T"
Si       1.96389701       1.09579688      -0.61241823       0.00000000
Si       0.62219233      -1.42265457       1.74250526       0.00000000
Si      -0.23410359      -1.16142813      -2.01829374       0.00000000
Si      -2.12550291       0.80369973       0.68361841       0.00000000
Si      -1.32019047      -1.40022324       3.08957675       0.00000000
Si       1.28279745       2.43578247      -2.46811175       0.00000000
Si      -1.88994951       0.86724702       3.09948676       0.00000000
Si       3.44623814      -0.51987906      -1.49278669       0.00000000
Si       1.90329821      -1.81767078      -2.76834723       0.00000000
Si      -2.59889031       2.75780645      -0.53959515       0.00000000
