10
Lattice="16.28999089631971 0.0 0.0 0.0 16.28999089631971 0.0 0.0 0.0 34.529650657227435" Properties=species:S:1:pos:R:3:initial_magmoms:R:1 pbc="T T T"
Si       1.14502410       0.25614396       1.97692719       0.00000000
Si       0.40653324       1.79905131      -1.39164929       0.00000000
Si      -1.92734320      -1.47044943       0.65406101       0.00000000
Si      -2.12667905       0.93701709       1.11344374       0.00000000
Si       1.27518120      -0.19049526      -2.70498528       0.00000000
Si      -0.45445842      -1.31305545       2.75743585       0.00000000
Si       1.19988882      -2.94879299       0.12748354       0.00000000
Si       2.63554281      -1.62179982      -1.30753501       0.00000000
Si       0.77035410       2.78128944       2.29532528       0.00000000
Si      -3.02315426      -1.71159030      -1.40466697       0.00000000
