10
Lattice="16.28999089631971 0.0 0.0 0.0 16.28999089631971 0.0 0.0 0.0 34.529650657227435" Properties=species:S:1:pos:R:3:initial_magmoms:R:1 pbc="T T T"
Si      -1.35642269      -1.35757602       1.35635997       0.00000000
Si      -1.35664912       1.35809730      -1.35694697       0.00000000
Si       1.35687555       1.35700587       1.35808645       0.00000000
Si       1.35842310      -1.35676152      -1.35708509       0.00000000
Si      -0.00656487      -2.70928764       2.71047550       0.00000000
Si      -2.71296568      -2.71388142       0.00027624       0.00000000
Si      -2.71295700       0.00288333       2.71392847       0.00000000
Si      -2.71440053      -0.00100998      -2.71313429       0.00000000
Si       0.00045612      -2.71423980      -2.71417018       0.00000000
Si      -0.00118917       2.71423980      -2.71434283       0.00000000
