10
Lattice="16.28999089631971 0.0 0.0 0.0 16.28999089631971 0.0 0.0 0.0 34.529650657227435" Properties=species:S:1:pos:R:3:initial_magmoms:R:1 pbc="T T T"
Si       1.34985782      -1.35171162       1.35411554       0.00000000
Si      -1.35654299      -1.35630540      -1.35608373       0.00000000
Si       1.35642269       1.35757602      -1.35635997       0.00000000
Si      -1.35653431       1.36045935       1.35756850       0.00000000
Si      -2.71421115      -2.71270854       0.00314220       0.00000000
Si      -0.00022643      -2.71419093      -2.71354864       0.00000000
Si       2.71329824       2.71458189       0.00172648       0.00000000
Si      -2.71481388       0.00071676      -2.71337599       0.00000000
Si       2.71484579       0.00081450      -2.71344505       0.00000000
Si      -0.00022643       2.71567332      -2.71330694       0.00000000
