10
Lattice="16.28999089631971 0.0 0.0 0.0 16.28999089631971 0.0 0.0 0.0 34.529650657227435" Properties=species:S:1:pos:R:3:initial_magmoms:R:1 pbc="T T T"
Si       1.35621743       1.35856808      -1.35622185       0.00000000
Si       1.35683645      -1.35720656       1.35777568       0.00000000
Si      -1.35680294      -1.35801712      -1.35705056       0.00000000
Si      -1.35781461       1.35767213       1.35777568       0.00000000
Si      -0.00180982      -2.71131642      -2.71524060       0.00000000
Si      -0.00225779      -2.71498167       2.71389394       0.00000000
Si       2.71454279      -2.71472103      -0.00013812       0.00000000
Si       0.00016127       2.71627442      -2.71368676       0.00000000
Si      -2.71501913      -2.71501425       0.00003453       0.00000000
Si       0.00002769       2.71515041       2.71489530       0.00000000
