10
Lattice="16.28999089631971 0.0 0.0 0.0 16.28999089631971 0.0 0.0 0.0 34.529650657227435" Properties=species:S:1:pos:R:3:initial_magmoms:R:1 pbc="T T T"
Si      -1.35499312       1.35329930       1.35819004       0.00000000
Si       1.35693582      -1.36220238       1.35777568       0.00000000
Si       1.36068252       1.34132676      -1.37583125       0.00000000
Si      -1.35488395      -1.35827649      -1.36622509       0.00000000
Si       0.04356761      -2.62816344      -2.78163770       0.00000000
Si      -2.71099387       2.70974932      -0.00590457       0.00000000
Si       0.00180982       2.71131642       2.71524060       0.00000000
Si       2.71584762       2.71206087      -0.00293502       0.00000000
Si      -2.71320931      -0.00369783       2.71527513       0.00000000
Si      -2.70923455      -2.72083725      -0.00234802       0.00000000
