10
Lattice="16.28999089631971 0.0 0.0 0.0 16.28999089631971 0.0 0.0 0.0 34.529650657227435" Properties=species:S:1:pos:R:3:initial_magmoms:R:1 pbc="T T T"
Si       0.09337754      -1.16545176       2.01691255       0.00000000
Si       2.41964004       0.00664632      -0.12865755       0.00000000
Si      -1.77683405       1.52912601       0.69836257       0.00000000
Si       1.15478670      -0.07509690      -2.41414187       0.00000000
Si       2.81115390      -2.41214175      -0.19488546       0.00000000
Si       1.36989615       0.07527609       3.57278495       0.00000000
Si       1.09340598      -3.25560537       1.75997728       0.00000000
Si      -1.37144111       2.24391233       2.94082293       0.00000000
Si      -2.47054370      -2.00248083      -2.36580034       0.00000000
Si      -1.56900623       3.60583127      -0.52219220       0.00000000
