10
Lattice="16.28999089631971 0.0 0.0 0.0 16.28999089631971 0.0 0.0 0.0 34.48637585096406" Properties=species:S:1:pos:R:3:initial_magmoms:R:1 pbc="T T T"
Si      -1.40058325       1.35444676      -1.29079128       0.00000000
Si       1.33638273       1.36918758       1.37750387       0.00000000
Si      -1.38072737      -1.34597653       1.37405524       0.00000000
Si       1.34322453      -1.36498696      -1.62051226       0.00000000
Si       2.67734295      -2.70037600      -0.00681451       0.00000000
Si       2.67338448       2.72397312      -0.00628342       0.00000000
Si       2.69164557       0.01226861       2.73609541       0.00000000
Si      -2.72221749      -2.71717099      -0.00005863       0.00000000
Si      -0.02101410      -2.70422044       2.73557811       0.00000000
Si      -2.73570092       2.71437831       0.03516578       0.00000000
