10
Lattice="16.28999089631971 0.0 0.0 0.0 16.28999089631971 0.0 0.0 0.0 34.48637585096406" Properties=species:S:1:pos:R:3:initial_magmoms:R:1 pbc="T T T"
Si      -1.35071860      -1.35279980      -1.38476671       0.00000000
Si       1.36043329       1.36542943      -1.38359417       0.00000000
Si       1.37333497      -1.33029255       1.50322748       0.00000000
Si      -1.55620066       1.21816783       1.43659976       0.00000000
Si       2.70598729      -2.67917299      -0.02314037       0.00000000
Si      -2.69731516      -2.73159421      -0.02296794       0.00000000
Si      -2.73051418       2.70391357      -0.01655347       0.00000000
Si       2.71758577       2.72162080       0.00124151       0.00000000
Si       0.00387376      -2.71022173      -2.74632408       0.00000000
Si      -2.71370290       0.00497334      -2.74639305       0.00000000
