10
Lattice="16.28999089631971 0.0 0.0 0.0 16.28999089631971 0.0 0.0 0.0 34.48637585096406" Properties=species:S:1:pos:R:3:initial_magmoms:R:1 pbc="T T T"
Si      -1.36829484      -1.32529273       1.36386795       0.00000000
Si      -1.35423657       1.35906700      -1.35803975       0.00000000
Si       1.36019871      -1.35746548      -1.36010894       0.00000000
Si       1.35796698       1.36460397       1.39452636       0.00000000
Si       0.20515626      -2.49800983       2.61406875       0.00000000
Si      -2.71269225       0.00106894      -2.71625194       0.00000000
Si       0.00198738      -2.71333105      -2.71697615       0.00000000
Si      -2.71437012      -2.71691485       0.00096562       0.00000000
Si       2.71713942      -2.71440619      -0.00334518       0.00000000
Si      -2.71384884       2.71930969       0.00341415       0.00000000
