10
Lattice="16.28999089631971 0.0 0.0 0.0 16.28999089631971 0.0 0.0 0.0 34.48637585096406" Properties=species:S:1:pos:R:3:initial_magmoms:R:1 pbc="T T T"
Si       2.28420009      -0.11847717       0.74835477       0.00000000
Si      -1.31075856      -1.10068272       1.71393935       0.00000000
Si       0.39570039      -1.40543604      -1.94275658       0.00000000
Si      -0.49461327       2.11841676       1.09228759       0.00000000
Si      -2.74572837       1.24287813      -1.22530162       0.00000000
Si      -1.77409503       1.00190016       2.74366862       0.00000000
Si       2.20320621      -0.80585001       3.00421334       0.00000000
Si       0.98776044      -3.58471943      -1.00369204       0.00000000
Si       1.49434686       3.11321448       1.93237618       0.00000000
Si       3.65472666      -1.41218010      -0.67876123       0.00000000
