10
Lattice="16.28999089631971 0.0 0.0 0.0 16.28999089631971 0.0 0.0 0.0 34.48637585096406" Properties=species:S:1:pos:R:3:initial_magmoms:R:1 pbc="T T T"
Si       2.08627659      -1.03939974       0.00355210       0.00000000
Si       0.08099388       0.68737284      -2.25585856       0.00000000
Si      -2.02215915      -1.19929098       0.44518487       0.00000000
Si       0.59608368       1.62489492       1.66534802       0.00000000
Si       1.09698489       2.81733921      -2.00190075       0.00000000
Si      -2.79639027      -0.18528246       2.47050189       0.00000000
Si      -3.51396477      -0.29483271      -1.29027399       0.00000000
Si       3.59557767       0.48119031      -1.07131986       0.00000000
Si      -2.20320621       0.80585001      -3.00421334       0.00000000
Si       2.40023376      -2.12027708       2.09408288       0.00000000
