10
Lattice="16.28999089631971 0.0 0.0 0.0 16.28999089631971 0.0 0.0 0.0 34.48637585096406" Properties=species:S:1:pos:R:3:initial_magmoms:R:1 pbc="T T T"
Si      -1.57771908      -0.75615380      -1.63965566       0.00000000
Si      -0.11238471       2.30391360      -0.84557192       0.00000000
Si       0.22762017      -0.48958424       2.41387523       0.00000000
Si       1.51163055      -1.64213432      -1.09946076       0.00000000
Si       3.30669081       0.91006463       0.89002489       0.00000000
Si      -0.05971914      -3.60001313      -0.72738705       0.00000000
Si      -2.29581486      -2.83685921      -0.44704714       0.00000000
Si       3.24361593      -1.74143816       0.57364670       0.00000000
Si      -0.31082949      -0.88130987      -3.77460492       0.00000000
Si      -1.33639902       2.22665013      -2.90534084       0.00000000
