10
Lattice="16.28999089631971 0.0 0.0 0.0 16.28999089631971 0.0 0.0 0.0 34.48637585096406" Properties=species:S:1:pos:R:3:initial_magmoms:R:1 pbc="T T T"
Si      -1.35097857       1.31123097       1.51441831       0.00000000
Si       1.97618877       0.66541392      -1.26649704       0.00000000
Si       1.33239168      -1.42579854       1.51192839       0.00000000
Si      -2.01500784      -0.96589926      -1.16857574       0.00000000
Si       2.77259058       2.62130535       0.08242248       0.00000000
Si      -2.71799464       2.72420928       0.12035752       0.00000000
Si       2.73828384      -2.76202000       0.11172213       0.00000000
Si      -2.74157605      -2.79532490       0.22742053       0.00000000
Si      -0.00807984       2.64850965       2.89744001       0.00000000
Si       2.70673011      -0.06612111       2.89088760       0.00000000
