10
Lattice="16.28999089631971 0.0 0.0 0.0 16.28999089631971 0.0 0.0 0.0 34.48637585096406" Properties=species:S:1:pos:R:3:initial_magmoms:R:1 pbc="T T T"
Si       1.35790182      -1.35671265      -1.36252298       0.00000000
Si      -1.35786924       1.35971001      -1.36224709       0.00000000
Si       1.36549296       1.35167904       1.37662792       0.00000000
Si      -1.35830907      -1.35448092       1.38552541       0.00000000
Si      -0.12245193       2.66908392       2.68242079       0.00000000
Si       2.71464705      -2.71078632      -0.00244853       0.00000000
Si      -2.71546155      -2.71067229       0.00068973       0.00000000
Si       2.71643895       2.71642266      -0.00106908       0.00000000
Si       0.00024435      -2.71353933      -2.71952815       0.00000000
Si      -2.71472850       0.00099369      -2.71952815       0.00000000
