10
Lattice="16.28999089631971 0.0 0.0 0.0 16.28999089631971 0.0 0.0 0.0 34.48637585096406" Properties=species:S:1:pos:R:3:initial_magmoms:R:1 pbc="T T T"
Si      -0.13466943       2.28146337       0.48956887       0.00000000
Si      -1.87093908      -0.90315018      -1.16129487       0.00000000
Si       0.94767075      -1.99733319       0.98955262       0.00000000
Si       2.16798723       0.14022432      -1.32393271       0.00000000
Si      -0.10868688       2.92053636      -1.76101328       0.00000000
Si      -2.32696134       2.17715850       1.24157920       0.00000000
Si       1.04979276      -0.72558918      -3.27003447       0.00000000
Si      -0.75243510      -2.28276657      -2.73139147       0.00000000
Si       3.32283420      -1.49807727      -0.01876060       0.00000000
Si      -0.55679220       1.29280698      -3.46719319       0.00000000
