10
Lattice="16.28999089631971 0.0 0.0 0.0 16.28999089631971 0.0 0.0 0.0 34.48637585096406" Properties=species:S:1:pos:R:3:initial_magmoms:R:1 pbc="T T T"
Si       0.04248432      -0.10682982       2.33121134       0.00000000
Si      -0.94767075       1.99733319      -0.98955262       0.00000000
Si       2.37516345       0.49925592      -1.00831322       0.00000000
Si      -0.30884211      -2.45721618      -1.03200537       0.00000000
Si       1.87242147      -1.69966602      -1.72825121       0.00000000
Si       1.22031648       2.13755751      -2.31348533       0.00000000
Si       1.92015117      -1.96750620       2.35321366       0.00000000
Si      -2.81860983       1.09418301      -2.15084749       0.00000000
Si      -1.70010585      -0.28543338      -3.72094409       0.00000000
Si      -1.93370445      -0.77224374       3.59770837       0.00000000
