10
Lattice="16.28999089631971 0.0 0.0 0.0 16.28999089631971 0.0 0.0 0.0 34.48637585096406" Properties=species:S:1:pos:R:3:initial_magmoms:R:1 pbc="T T T"
Si       1.34594496       1.33043688       1.35733623       0.00000000
Si       1.45738485      -1.30311855      -1.26873034       0.00000000
Si      -1.37018448      -1.37845980       1.35171495       0.00000000
Si      -1.22157081       1.48335111      -1.40803468       0.00000000
Si      -2.05102503      -0.37486548      -2.57211812       0.00000000
Si      -0.39218175      -2.23922340      -2.50736026       0.00000000
Si      -0.00946449       2.69602758       2.71320334       0.00000000
Si       2.70295083      -0.01873350       2.71403102       0.00000000
Si       2.72166804       2.69886204      -0.03587275       0.00000000
Si      -2.74102056       2.69705385      -0.02791329       0.00000000
