10
Lattice="16.28999089631971 0.0 0.0 0.0 16.28999089631971 0.0 0.0 0.0 34.48637585096406" Properties=species:S:1:pos:R:3:initial_magmoms:R:1 pbc="T T T"
Si      -1.35769005      -1.35746199      -1.35707413       0.00000000
Si       1.35782037       1.35816246      -1.35735003       0.00000000
Si       1.35536058      -1.35640314       1.36183326       0.00000000
Si      -1.35853713       1.35457866       1.36059175       0.00000000
Si      -0.02598255      -2.71231758       2.70980298       0.00000000
Si      -2.71475131      -0.00083079      -2.71421724       0.00000000
Si      -0.00016290      -2.71443528      -2.71470005       0.00000000
Si       2.71511946       0.00004887      -2.71411378       0.00000000
Si       2.72777679       0.01120752       2.70169868       0.00000000
Si      -2.71457537       2.71515204       0.00031038       0.00000000
