10
Lattice="16.28999089631971 0.0 0.0 0.0 16.28999089631971 0.0 0.0 0.0 34.48637585096406" Properties=species:S:1:pos:R:3:initial_magmoms:R:1 pbc="T T T"
Si       1.69386678       0.80430246       1.36965274       0.00000000
Si       1.23072579       0.51219018      -1.96262075       0.00000000
Si      -0.89433729      -1.82133603       1.37915030       0.00000000
Si      -1.78526997       1.76404410      -0.12239222       0.00000000
Si       0.32086413       2.11167270       2.78059807       0.00000000
Si       2.89514025       2.30149097       0.00282788       0.00000000
Si      -2.41378704      -0.60763329       2.75927169       0.00000000
Si      -0.50125959       0.61149402      -3.63572821       0.00000000
Si       1.29380067       3.16369297      -1.64624256       0.00000000
Si      -1.01185335       3.48049438       1.35959651       0.00000000
