10
Lattice="16.28999089631971 0.0 0.0 0.0 16.28999089631971 0.0 0.0 0.0 34.48637585096406" Properties=species:S:1:pos:R:3:initial_magmoms:R:1 pbc="T T T"
Si      -1.58592924       1.44106294      -1.00331269       0.00000000
Si       1.57771908       0.75615380       1.63965566       0.00000000
Si       1.26688959      -0.12515607      -2.13494926       0.00000000
Si      -0.71809578      -2.08070541       1.19260852       0.00000000
Si       0.24132006       2.98280393      -1.26568519       0.00000000
Si       3.08934963      -0.88598052       0.54019489       0.00000000
Si       1.51799994      -2.84385933       0.91226861       0.00000000
Si      -1.89640035      -0.26959950      -2.77284411       0.00000000
Si       1.46533437       3.06006740       0.79408373       0.00000000
Si       0.88694163      -2.37907305      -2.81653838       0.00000000
