10
Lattice="16.28999089631971 0.0 0.0 0.0 16.28999089631971 0.0 0.0 0.0 34.48637585096406" Properties=species:S:1:pos:R:3:initial_magmoms:R:1 pbc="T T T"
Si       0.77341662       1.71645028       1.48198873       0.00000000
Si      -0.22762017       0.48958424      -2.41387523       0.00000000
Si       1.78526997      -1.76404410       0.12239222       0.00000000
Si      -1.96263549      -1.03628835       1.26796616       0.00000000
Si       2.10613410       0.34762860       2.90299029       0.00000000
Si       3.07907064       1.39964887      -1.52385034       0.00000000
Si       3.01599576      -1.25185392      -1.84022853       0.00000000
Si      -0.62851707      -2.37167739       2.88166390       0.00000000
Si       1.88898840       3.28320782       0.12577188       0.00000000
Si       3.47913675      -0.95974164       1.49204496       0.00000000
