10
Lattice="16.28999089631971 0.0 0.0 0.0 16.28999089631971 0.0 0.0 0.0 34.48637585096406" Properties=species:S:1:pos:R:3:initial_magmoms:R:1 pbc="T T T"
Si      -2.13208407      -0.85501323      -0.25409576       0.00000000
Si       1.49991804      -1.30966224      -1.23726840       0.00000000
Si       0.01197315       0.23250717       2.35755894       0.00000000
Si       0.07050312       2.14840665      -1.00303680       0.00000000
Si       1.94176800       3.02397786       0.13763520       0.00000000
Si      -3.50261064       0.43868970       1.17302024       0.00000000
Si       3.38162481       0.11608254      -1.56788947       0.00000000
Si      -0.53178705       2.47291974       2.74542743       0.00000000
Si      -2.48661963       2.56865607       1.42697806       0.00000000
Si       0.37292697      -2.34218109      -3.07701412       0.00000000
