10
Lattice="16.28999089631971 0.0 0.0 0.0 16.28999089631971 0.0 0.0 0.0 34.48637585096406" Properties=species:S:1:pos:R:3:initial_magmoms:R:1 pbc="T T T"
Si      -1.34037378      -1.35115776      -1.37483463       0.00000000
Si      -1.35456237       1.36057338       1.35497046       0.00000000
Si       1.35972630      -1.35448092       1.35652235       0.00000000
Si       1.38362373       1.32525666      -1.36683378       0.00000000
Si       0.11295486       2.79155214      -2.62765294       0.00000000
Si       0.00144981      -2.71339272       2.71280330       0.00000000
Si       2.71425609      -2.71197549      -0.00375902       0.00000000
Si      -2.71378368       0.00148239       2.71290676       0.00000000
Si       2.71585251       0.00131949       2.71283779       0.00000000
Si      -2.71507059      -2.71423980      -0.00734560       0.00000000
