10
Lattice="16.28999089631971 0.0 0.0 0.0 16.28999089631971 0.0 0.0 0.0 34.48637585096406" Properties=species:S:1:pos:R:3:initial_magmoms:R:1 pbc="T T T"
Si      -1.63320282      -1.09582830      -1.32289812       0.00000000
Si       1.07678529       1.61694540      -1.36635097       0.00000000
Si      -1.54860885       0.92018952       1.72766494       0.00000000
Si       1.73762172      -1.84542894       0.09990709       0.00000000
Si      -0.27486117      -2.41958628      -2.85254217       0.00000000
Si       2.45460978       0.30747375      -2.85119720       0.00000000
Si       2.44283211       2.92944699       0.11187387       0.00000000
Si      -3.11701005      -2.25000738       0.14725691       0.00000000
Si       1.42553790      -2.87507097       2.27644694       0.00000000
Si      -3.72853665      -0.35352558       1.44732503       0.00000000
