10
Lattice="16.28999089631971 0.0 0.0 0.0 16.28999089631971 0.0 0.0 0.0 34.48637585096406" Properties=species:S:1:pos:R:3:initial_magmoms:R:1 pbc="T T T"
Si      -1.58891913      -1.12181085       1.25875687       0.00000000
Si       1.00482259       1.73284875       1.29163275       0.00000000
Si       1.70780939      -1.95725979       0.00269949       0.00000000
Si      -2.10241251       0.77678865      -1.60558797       0.00000000
Si       0.67146240      -2.22135327      -2.21465219       0.00000000
Si       1.07597731      -0.15960942      -3.38870703       0.00000000
Si       2.37183866       0.31987044       2.68569354       0.00000000
Si      -0.35387649      -2.42675388       2.72465282       0.00000000
Si      -3.07117881      -2.29679226      -0.08822107       0.00000000
Si      -1.40186106      -3.29597199      -1.46753893       0.00000000
