10
Lattice="16.28999089631971 0.0 0.0 0.0 16.28999089631971 0.0 0.0 0.0 34.48637585096406" Properties=species:S:1:pos:R:3:initial_magmoms:R:1 pbc="T T T"
Si      -1.27066887       1.46629548      -1.26081916       0.00000000
Si      -1.38362373      -1.32525666       1.36683378       0.00000000
Si       1.32831918       1.39255065       1.36228158       0.00000000
Si       1.36842516      -1.37441988      -1.52188807       0.00000000
Si       2.70467757      -2.68931610      -0.02026421       0.00000000
Si      -2.72399751      -2.67641442      -0.00800084       0.00000000
Si      -0.02389743      -2.67973758       2.72335614       0.00000000
Si       2.69260668       0.03412755       2.72176976       0.00000000
Si      -2.73818610       0.03531672       2.72180425       0.00000000
Si       2.70317889       2.75999841      -0.02177471       0.00000000
