10
Lattice="16.28999089631971 0.0 0.0 0.0 16.28999089631971 0.0 0.0 0.0 34.48637585096406" Properties=species:S:1:pos:R:3:initial_magmoms:R:1 pbc="T T T"
Si       0.49433634       1.16905185       1.93192785       0.00000000
Si       1.92433770      -0.15133410      -1.35590160       0.00000000
Si      -0.69864552      -2.27864520       0.05062603       0.00000000
Si      -1.63918125       1.56138021      -0.81425828       0.00000000
Si      -0.98632692      -0.89378343      -3.33004080       0.00000000
Si       1.12501998       3.24881244       1.05869784       0.00000000
Si      -1.63476666       1.39188276       2.93220575       0.00000000
Si      -2.03880753      -2.45716731      -1.86381722       0.00000000
Si      -1.36651923       1.45521828      -3.12881268       0.00000000
Si      -3.69326880       0.34681410      -0.51484739       0.00000000
