10
Lattice="16.28999089631971 0.0 0.0 0.0 16.28999089631971 0.0 0.0 0.0 34.48637585096406" Properties=species:S:1:pos:R:3:initial_magmoms:R:1 pbc="T T T"
Si       1.85271057      -0.91636137       0.99658785       0.00000000
Si      -0.49433634      -1.16905185      -1.93192785       0.00000000
Si       0.63068364       2.07976059      -0.87323001       0.00000000
Si      -2.12910300       0.22283091       1.00027789       0.00000000
Si      -1.59091398       2.46203802      -1.56682039       0.00000000
Si      -2.13351759       0.39232836      -2.74618613       0.00000000
Si      -1.44045954      -0.20036700       3.21033852       0.00000000
Si      -2.64070674       2.52240876       0.59226935       0.00000000
Si       1.43000136      -1.32038595      -3.28782945       0.00000000
Si       1.60078572       3.38529006       0.81884497       0.00000000
