10
Lattice="16.28999089631971 0.0 0.0 0.0 16.28999089631971 0.0 0.0 0.0 34.48637585096406" Properties=species:S:1:pos:R:3:initial_magmoms:R:1 pbc="T T T"
Si       1.84827969       1.15843077      -0.89792227       0.00000000
Si      -1.11511566      -0.39234465      -2.04176702       0.00000000
Si       0.81598239      -1.68720417       1.46632703       0.00000000
Si      -2.12744142       0.61256916       0.90319869       0.00000000
Si       3.48793335      -0.34210629      -0.25033674       0.00000000
Si      -0.72470952      -1.61547930       3.24217157       0.00000000
Si      -3.55853421      -1.06800498       0.11252911       0.00000000
Si      -2.39920749       1.62823437      -2.39366620       0.00000000
Si      -2.73237057       2.58204645      -0.30130763       0.00000000
Si       3.10634010      -0.60183405       2.11846477       0.00000000
