10
Lattice="16.28999089631971 0.0 0.0 0.0 16.28999089631971 0.0 0.0 0.0 34.48637585096406" Properties=species:S:1:pos:R:3:initial_magmoms:R:1 pbc="T T T"
Si       0.13962159       1.96244001      -1.25061463       0.00000000
Si       2.22159762      -0.38227743       0.69359038       0.00000000
Si      -1.04979276       0.06037074       2.15908974       0.00000000
Si      -0.54260361      -2.06970966      -1.17936574       0.00000000
Si       1.59091398      -2.46203802       1.56682039       0.00000000
Si      -0.53818902      -2.23920711       2.56709828       0.00000000
Si      -0.33902748       3.65835933       0.33024172       0.00000000
Si       1.09657764      -3.63108987      -0.36510747       0.00000000
Si      -1.93409541       2.42121528      -2.30303595       0.00000000
Si       2.13654753       2.14022907      -2.53533631       0.00000000
