10
Lattice="16.28999089631971 0.0 0.0 0.0 16.28999089631971 0.0 0.0 0.0 34.48637585096406" Properties=species:S:1:pos:R:3:initial_magmoms:R:1 pbc="T T T"
Si       0.36994590       2.25931616      -0.37183231       0.00000000
Si       1.08106956      -0.18163350       2.06094146       0.00000000
Si       0.47864907      -1.69591932      -1.58085635       0.00000000
Si      -2.29702032       0.08677683      -0.69676313       0.00000000
Si      -1.59506793      -1.23714405      -2.63327767       0.00000000
Si      -0.59347728       2.62869191      -2.43649830       0.00000000
Si       0.33902748      -3.65835933      -0.33024172       0.00000000
Si      -1.00058067       3.55301909       1.05528369       0.00000000
Si       3.46258611      -0.42634188       1.68824699       0.00000000
Si       1.00470204       1.82624651       3.31469435       0.00000000
