10
Lattice="16.28999089631971 0.0 0.0 0.0 16.28999089631971 0.0 0.0 0.0 34.48637585096406" Properties=species:S:1:pos:R:3:initial_magmoms:R:1 pbc="T T T"
Si       2.10168693      -0.72974313       0.67834739       0.00000000
Si       0.78999984       1.83765861      -1.32486384       0.00000000
Si      -1.00183500      -1.57869648      -1.55695728       0.00000000
Si      -0.84072690       1.29026574       1.89175120       0.00000000
Si       1.02758949       2.76466128       2.01941984       0.00000000
Si       3.23965746      -0.71581518      -1.33038166       0.00000000
Si       2.87200845       1.30826619       1.70338651       0.00000000
Si      -3.52341297      -0.66222108       0.84498565       0.00000000
Si      -3.30755418      -1.11834108      -1.45846414       0.00000000
Si      -3.14346501       1.59169590       1.52657477       0.00000000
