10
Lattice="16.28999089631971 0.0 0.0 0.0 16.28999089631971 0.0 0.0 0.0 34.48637585096406" Properties=species:S:1:pos:R:3:initial_magmoms:R:1 pbc="T T T"
Si       1.58891913       1.12181085      -1.25875687       0.00000000
Si       1.23504264      -1.30494303       1.46589595       0.00000000
Si      -1.48225968      -1.17498141      -1.34697794       0.00000000
Si      -1.46815254       1.41450957       1.42365357       0.00000000
Si      -0.51349338       1.89859950      -2.86434484       0.00000000
Si       0.18705807      -2.17416114      -2.72629580       0.00000000
Si       3.29672852      -0.83544894      -1.25605738       0.00000000
Si       2.57016031      -2.66487458       0.13993889       0.00000000
Si      -2.76550443      -2.59602816       0.09467895       0.00000000
Si       2.58763459       0.06476904       2.80350942       0.00000000
