10
Lattice="16.28999089631971 0.0 0.0 0.0 16.28999089631971 0.0 0.0 0.0 34.48637585096406" Properties=species:S:1:pos:R:3:initial_magmoms:R:1 pbc="T T T"
Si       1.35511623       1.35791447       1.35724657       0.00000000
Si       1.35775521      -1.35711769      -1.35759143       0.00000000
Si      -1.35860229       1.35745998      -1.35676376       0.00000000
Si      -1.35754344      -1.35723172       1.35821219       0.00000000
Si      -2.71505430      -0.00045164      -2.71235498       0.00000000
Si       2.71426722       0.00148941      -2.71466556       0.00000000
Si      -0.00047241       2.71521031      -2.71401032       0.00000000
Si      -2.71500543      -2.71484032      -0.00013795       0.00000000
Si       2.71511959       2.71491709      -0.00020692       0.00000000
Si       0.00109143       2.71740946       2.71273433       0.00000000
