10
Lattice="16.28999089631971 0.0 0.0 0.0 16.28999089631971 0.0 0.0 0.0 34.48637585096406" Properties=species:S:1:pos:R:3:initial_magmoms:R:1 pbc="T T T"
Si      -1.35645201      -1.35791163      -1.35559122       0.00000000
Si      -1.35668007       1.35804354       1.35645338       0.00000000
Si       1.35860229      -1.35745998       1.35676376       0.00000000
Si       1.35812988       1.35775032      -1.35724657       0.00000000
Si      -0.00764001      -2.70635122      -2.71201011       0.00000000
Si       0.00117288       2.71265478       2.71432070       0.00000000
Si      -2.71419093      -2.71351882      -0.00037935       0.00000000
Si       2.71371852       0.00045449       2.71401032       0.00000000
Si      -2.71427238      -0.00060110       2.71397584       0.00000000
Si      -2.71366965       2.71529376      -0.00086216       0.00000000
