10
Lattice="16.28999089631971 0.0 0.0 0.0 16.28999089631971 0.0 0.0 0.0 34.48637585096406" Properties=species:S:1:pos:R:3:initial_magmoms:R:1 pbc="T T T"
Si      -1.35402480       1.35949498       1.35548776       0.00000000
Si      -1.35511623      -1.35791447      -1.35724657       0.00000000
Si       1.36000336       1.35700261      -1.35745348       0.00000000
Si       1.36298430      -1.35777314       1.36162634       0.00000000
Si      -2.71254564       2.71220029       0.00031038       0.00000000
Si      -2.71371852      -0.00045449      -2.71401032       0.00000000
Si      -2.71265967      -2.71514619       0.00096562       0.00000000
Si      -0.01681128       2.69894023       2.72983958       0.00000000
Si       0.00291591       2.71457863      -2.71501043       0.00000000
Si       0.00263898      -2.71503216      -2.71483800       0.00000000
