10
Lattice="16.28999089631971 0.0 0.0 0.0 16.28999089631971 0.0 0.0 0.0 34.48637585096406" Properties=species:S:1:pos:R:3:initial_magmoms:R:1 pbc="T T T"
Si       0.26547813       1.38921120       1.88740592       0.00000000
Si      -2.22211890       0.77102199      -0.38993767       0.00000000
Si      -0.34930647      -2.25730041       0.72393841       0.00000000
Si      -1.35715248      -2.44052545      -1.52705758       0.00000000
Si       1.39375611      -1.78676865      -2.52126586       0.00000000
Si       1.90184121      -2.59209575       1.52802320       0.00000000
Si      -2.27271564       2.02336461       1.87271471       0.00000000
Si      -1.91003508       1.80066402      -2.56647753       0.00000000
Si       2.01178242       2.94599763       1.40183748       0.00000000
Si       0.83525346       0.07718202       3.75429243       0.00000000
