10
Lattice="16.28999089631971 0.0 0.0 0.0 16.28999089631971 0.0 0.0 0.0 34.48637585096406" Properties=species:S:1:pos:R:3:initial_magmoms:R:1 pbc="T T T"
Si      -1.83716991      -0.78993468      -1.36110904       0.00000000
Si      -0.35443782       0.96923871       2.22878674       0.00000000
Si       0.92393622       1.84365333      -1.39066388       0.00000000
Si       1.72922164      -1.81615581      -0.08045676       0.00000000
Si      -0.40834143      -2.10743730      -2.77463741       0.00000000
Si       1.73897935       2.19370914       2.32372779       0.00000000
Si       2.34031655       0.62141463      -2.78229339       0.00000000
Si       0.76597209      -3.59318304      -1.32148417       0.00000000
Si       3.63200930      -0.70657875      -1.29237766       0.00000000
Si       1.85102034       3.64156434      -0.15839601       0.00000000
