10
Lattice="16.28999089631971 0.0 0.0 0.0 16.28999089631971 0.0 0.0 0.0 34.48637585096406" Properties=species:S:1:pos:R:3:initial_magmoms:R:1 pbc="T T T"
Si       1.41638033      -1.22223870      -1.39162950       0.00000000
Si       0.92708412       1.79791101       1.23226787       0.00000000
Si      -1.31909904       1.46984670      -1.39425047       0.00000000
Si      -0.92393622      -1.84365333       1.39066388       0.00000000
Si       2.70807308      -2.55023208       0.09828623       0.00000000
Si       0.04588893      -2.57758299      -2.75146255       0.00000000
Si      -2.76110613      -2.63358801       0.02955484       0.00000000
Si       0.81504313       0.35005581       3.71439167       0.00000000
Si      -0.89026479       3.50026488       1.25123539       0.00000000
Si      -2.72725551       2.69687466       0.01476018       0.00000000
