10
Lattice="16.28999089631971 0.0 0.0 0.0 16.28999089631971 0.0 0.0 0.0 34.48637585096406" Properties=species:S:1:pos:R:3:initial_magmoms:R:1 pbc="T T T"
Si      -0.45126558       1.33887510      -1.91799535       0.00000000
Si      -1.74630429      -1.55678643       0.48556844       0.00000000
Si       0.21452301       1.32783048       2.00772895       0.00000000
Si       2.23976816      -0.89124219      -0.57957836       0.00000000
Si       1.64215159       2.56334553      -1.82305431       0.00000000
Si       3.36794840       1.25563320      -0.69928063       0.00000000
Si      -2.01178242      -2.94599763      -1.40183748       0.00000000
Si       2.72639933      -2.43379116       1.16150179       0.00000000
Si       1.11156674      -0.14043609       3.68476786       0.00000000
Si      -2.53939923       2.57877216      -1.39535403       0.00000000
