10
Lattice="16.28999089631971 0.0 0.0 0.0 16.28999089631971 0.0 0.0 0.0 34.48637585096406" Properties=species:S:1:pos:R:3:initial_magmoms:R:1 pbc="T T T"
Si      -1.20598128      -1.36533006       1.46092444       0.00000000
Si       1.41113754       1.28513439       1.52466909       0.00000000
Si      -1.86359229       1.55292570      -0.64034338       0.00000000
Si       1.08493029      -2.19613635      -1.32545011       0.00000000
Si      -2.47961493      -2.72399751      -0.05010873       0.00000000
Si       2.44450998       2.06637021      -2.03635266       0.00000000
Si      -1.48199904       1.81265346      -3.00914489       0.00000000
Si       3.19165476       2.23013358       0.31847673       0.00000000
Si      -2.57440644       0.00908982       2.98281250       0.00000000
Si       0.13027113      -2.68022628       2.96254829       0.00000000
