10
Lattice="16.28999089631971 0.0 0.0 0.0 16.28999089631971 0.0 0.0 0.0 34.48637585096406" Properties=species:S:1:pos:R:3:initial_magmoms:R:1 pbc="T T T"
Si      -1.61811828       0.71174268      -1.53164427       0.00000000
Si       1.65772646      -1.42915428      -0.94782408       0.00000000
Si       0.80034955       1.81359828       1.39800949       0.00000000
Si      -1.46422665      -1.59518196       1.13139516       0.00000000
Si       2.08285473      -2.68644906       0.98213805       0.00000000
Si      -3.52298943       0.49280508      -0.12446140       0.00000000
Si       1.56141835       0.54999927       3.25499840       0.00000000
Si      -1.25162586       2.95016787       1.89499293       0.00000000
Si      -0.07929972      -3.44761560       1.40587238       0.00000000
Si      -1.05314850       2.87062380      -2.13022463       0.00000000
