10
Lattice="16.28999089631971 0.0 0.0 0.0 16.28999089631971 0.0 0.0 0.0 34.48637585096406" Properties=species:S:1:pos:R:3:initial_magmoms:R:1 pbc="T T T"
Si       1.35754344       1.35723172      -1.35821219       0.00000000
Si      -1.35746199      -1.35760860      -1.35835013       0.00000000
Si      -1.35855342       1.35782423       1.35800527       0.00000000
Si       1.36029645      -1.35868374       1.35776386       0.00000000
Si       2.71265967       2.71514619      -0.00096562       0.00000000
Si      -2.71490769      -2.71336014      -0.00093113       0.00000000
Si      -2.71533123       2.71409060      -0.00100011       0.00000000
Si       2.71373481      -2.71575477      -0.00041384       0.00000000
Si      -0.00105885       2.71469170      -2.71497594       0.00000000
Si      -2.71524978       0.00117288      -2.71535529       0.00000000
