10
Lattice="16.28999089631971 0.0 0.0 0.0 16.28999089631971 0.0 0.0 0.0 34.48637585096406" Properties=species:S:1:pos:R:3:initial_magmoms:R:1 pbc="T T T"
Si      -1.38017025       1.25012718       1.38787049       0.00000000
Si      -1.36875096      -1.33726239      -1.36469563       0.00000000
Si       1.34659656       1.37879441      -1.36179877       0.00000000
Si       1.29917637      -1.49517765       1.44611801       0.00000000
Si       2.69750901      -2.68956045      -0.01069078       0.00000000
Si      -0.01531260      -2.69433342      -2.72287333       0.00000000
Si       2.70118892       0.02137248      -2.72335614       0.00000000
Si      -2.72696229      -2.70161505       0.01007003       0.00000000
Si       2.69731516       2.73159421       0.02296794       0.00000000
Si      -2.72904741       0.02142135      -2.72245949       0.00000000
