10
Lattice="16.28999089631971 0.0 0.0 0.0 16.28999089631971 0.0 0.0 0.0 34.48637585096406" Properties=species:S:1:pos:R:3:initial_magmoms:R:1 pbc="T T T"
Si       0.89857336       1.57992867       1.46960324       0.00000000
Si       1.60861374      -1.04689314      -1.35269436       0.00000000
Si      -0.64293372      -2.00788911       1.29272252       0.00000000
Si      -1.46145735       1.73026583      -1.11756612       0.00000000
Si      -0.95337225       0.92493873       2.93172294       0.00000000
Si      -0.01622484      -2.20545423      -2.67617875       0.00000000
Si       2.75524892       0.69102508      -2.59610134       0.00000000
Si      -2.69557146       0.53985060      -2.73442627       0.00000000
Si      -1.35011520      -1.37437101       3.44991551       0.00000000
Si       2.62593890       0.70313213       2.88854597       0.00000000
