10
Lattice="16.28999089631971 0.0 0.0 0.0 16.28999089631971 0.0 0.0 0.0 34.48637585096406" Properties=species:S:1:pos:R:3:initial_magmoms:R:1 pbc="T T T"
Si      -2.11445733       0.89608032      -0.40569795       0.00000000
Si       1.76193455       1.03467564      -1.18857361       0.00000000
Si      -0.40451491      -2.06174385       1.17405484       0.00000000
Si      -1.07597731       0.15960942       3.38870703       0.00000000
Si      -2.96051106      -0.55338759      -2.08753047       0.00000000
Si      -3.17838981       0.93639807       1.78311906       0.00000000
Si      -0.67474809      -3.73191520      -0.50577747       0.00000000
Si       0.95254960       2.32015212      -2.96841646       0.00000000
Si       0.63183209      -1.79765037       3.39140652       0.00000000
Si       2.88043852      -0.34494075      -2.75867021       0.00000000
