10
Lattice="16.28999089631971 0.0 0.0 0.0 16.28999089631971 0.0 0.0 0.0 34.48637585096406" Properties=species:S:1:pos:R:3:initial_magmoms:R:1 pbc="T T T"
Si      -1.35706126       1.35663120      -1.35714311       0.00000000
Si       1.35752715      -1.35697329      -1.35762592       0.00000000
Si       1.35769005       1.35746199       1.35707413       0.00000000
Si      -1.35738054      -1.35964485       1.35659132       0.00000000
Si      -0.00198738      -2.71218726       2.71249292       0.00000000
Si      -2.71098899      -0.00074934       2.71621745       0.00000000
Si      -2.71568696       0.00153126      -2.71221703       0.00000000
Si      -2.71420875       2.71450044       0.00034486       0.00000000
Si       0.00288333       2.71393029      -2.71480351       0.00000000
Si       2.71489140       0.00112401      -2.71387238       0.00000000
