10
Lattice="16.28999089631971 0.0 0.0 0.0 16.28999089631971 0.0 0.0 0.0 34.48637585096406" Properties=species:S:1:pos:R:3:initial_magmoms:R:1 pbc="T T T"
Si      -2.10912332       0.84869271       0.53188367       0.00000000
Si       0.95692347      -1.72077786       1.28517000       0.00000000
Si      -0.00096111      -1.33208217      -1.98300221       0.00000000
Si       1.59531228       1.68005286       0.61365091       0.00000000
Si       3.07929870      -1.30629510       0.16987998       0.00000000
Si       2.41469928      -0.93097350      -2.22699345       0.00000000
Si      -2.63454002       1.48486608      -1.58854682       0.00000000
Si      -3.15438650      -1.25988489       0.72400738       0.00000000
Si      -1.72675792      -0.02436984      -3.10677588       0.00000000
Si       0.35805420       3.06556623       2.15795169       0.00000000
