10
Lattice="16.28999089631971 0.0 0.0 0.0 16.28999089631971 0.0 0.0 0.0 34.48637585096406" Properties=species:S:1:pos:R:3:initial_magmoms:R:1 pbc="T T T"
Si       0.78218064      -2.14918857       0.51795117       0.00000000
Si      -1.85240106       0.70296237       1.27796234       0.00000000
Si      -0.79154739       0.28657368      -2.22254471       0.00000000
Si       1.69481160       1.68642225       0.30120418       0.00000000
Si      -2.42490822       2.22650091      -0.44566768       0.00000000
Si      -0.81523305       1.93062564       3.02093924       0.00000000
Si       1.47895281       2.14254225       2.60465396       0.00000000
Si      -0.09633906       2.49919551      -2.83860967       0.00000000
Si       0.93617001       3.55786632      -0.98600052       0.00000000
Si       2.86565535      -2.51375877      -0.41052605       0.00000000
