10
Lattice="16.28999089631971 0.0 0.0 0.0 16.28999089631971 0.0 0.0 0.0 34.48637585096406" Properties=species:S:1:pos:R:3:initial_magmoms:R:1 pbc="T T T"
Si       0.79154739      -0.28657368       2.22254471       0.00000000
Si       0.69520833       2.21262183      -0.61606496       0.00000000
Si       1.23725808      -1.38551337      -1.54430077       0.00000000
Si      -2.39553409      -0.09270639      -0.31948196       0.00000000
Si      -1.63336083       1.93992723       1.77687702       0.00000000
Si      -2.35136702       1.63062900      -1.96696603       0.00000000
Si      -1.06085367       0.41638869       3.50050705       0.00000000
Si      -2.46717751      -2.21687352      -1.62606802       0.00000000
Si      -0.35805420      -3.06556623      -2.15795169       0.00000000
Si       2.48635899       1.39984857       2.52374888       0.00000000
