10
Lattice="16.28999089631971 0.0 0.0 0.0 16.28999089631971 0.0 0.0 0.0 34.48637585096406" Properties=species:S:1:pos:R:3:initial_magmoms:R:1 pbc="T T T"
Si       1.85240106      -0.70296237      -1.27796234       0.00000000
Si      -0.57250716       1.52353854      -1.72363003       0.00000000
Si       1.03716801       1.22766327       1.74297690       0.00000000
Si      -1.62030277      -1.59487245       0.85153807       0.00000000
Si      -2.43945098       2.43025623      -0.70759186       0.00000000
Si       0.80741385       3.39063318      -1.02714279       0.00000000
Si       1.06085367      -0.41638869      -3.50050705       0.00000000
Si       3.54721266       0.98345988      -0.97675817       0.00000000
Si      -1.74035714       3.07740906       1.48463931       0.00000000
Si       0.54801189       3.54905343       1.37038588       0.00000000
