10
Lattice="16.28999089631971 0.0 0.0 0.0 16.28999089631971 0.0 0.0 0.0 34.48637585096406" Properties=species:S:1:pos:R:3:initial_magmoms:R:1 pbc="T T T"
Si       0.52756305       2.19357882      -0.72711115       0.00000000
Si      -0.54914242      -1.35754344      -1.88368139       0.00000000
Si      -1.87067422      -0.19471437       1.48705336       0.00000000
Si       1.25404818      -1.27863468       1.62913731       0.00000000
Si      -2.41777387      -2.28591054      -0.74818234       0.00000000
Si       3.44634009      -1.17432981       0.87712697       0.00000000
Si       3.47232264      -0.53525682      -1.37345517       0.00000000
Si      -1.49575987       3.38299317      -1.06894030       0.00000000
Si       2.03640801       3.23887554       0.74363014       0.00000000
Si      -1.31021122      -0.09394443      -3.74067031       0.00000000
