10
Lattice="16.28999089631971 0.0 0.0 0.0 16.28999089631971 0.0 0.0 0.0 34.48637585096406" Properties=species:S:1:pos:R:3:initial_magmoms:R:1 pbc="T T T"
Si      -1.27417678       0.05066190      -1.93085878       0.00000000
Si      -1.43403055       1.12175613       1.46176073       0.00000000
Si       1.51826221      -1.64618595       0.70093598       0.00000000
Si       2.36760652      -1.72915092      -1.76222030       0.00000000
Si      -0.39541369       2.19643024      -2.59679107       0.00000000
Si       0.18459828       2.30126942       2.69638919       0.00000000
Si      -2.19850396       2.79198287      -0.16984550       0.00000000
Si       2.92840606      -0.41816430       2.36666822       0.00000000
Si       0.34273020      -3.05901765       2.39744388       0.00000000
Si      -0.12518051       3.86660159      -0.91695876       0.00000000
