10
Lattice="16.28999089631971 0.0 0.0 0.0 16.28999089631971 0.0 0.0 0.0 34.48637585096406" Properties=species:S:1:pos:R:3:initial_magmoms:R:1 pbc="T T T"
Si      -1.51826221       1.64618595      -0.70093598       0.00000000
Si      -1.17553201      -1.41283170       1.69650790       0.00000000
Si       1.41014385       1.22802165       1.66573224       0.00000000
Si       0.84934431      -0.08296497      -2.46315629       0.00000000
Si       3.37277934       2.26431000       0.39776608       0.00000000
Si      -2.95229276       2.76794208       0.76082475       0.00000000
Si      -2.31059315      -3.35279151       0.63509632       0.00000000
Si      -0.65950065      -1.12826169      -3.93389758       0.00000000
Si       0.06691932       2.59300861       3.28624450       0.00000000
Si      -2.79243899       1.69684785      -2.63179476       0.00000000
