10
Lattice="16.28999089631971 0.0 0.0 0.0 16.28999089631971 0.0 0.0 0.0 34.3005442915855" Properties=species:S:1:pos:R:3:initial_magmoms:R:1 pbc="T T T"
Si       0.07927854       1.49398848      -1.85411696       0.00000000
Si      -1.58879206      -1.90788480      -0.08369337       0.00000000
Si      -0.90767458       2.03098411       1.32780911       0.00000000
Si       2.16667914      -1.18845324       0.82283622       0.00000000
Si      -1.67366296       0.21507687       2.73654496       0.00000000
Si      -3.18654784      -0.95607639       1.44666129       0.00000000
Si       2.27425830       2.70729441      -1.20943787       0.00000000
Si       1.08237928      -2.59305849       2.52309941       0.00000000
Si       0.71519127       0.35251560      -3.84258922       0.00000000
Si       2.43016989      -2.41452009      -1.98006863       0.00000000
