10
Lattice="16.28999089631971 0.0 0.0 0.0 16.28999089631971 0.0 0.0 0.0 34.3005442915855" Properties=species:S:1:pos:R:3:initial_magmoms:R:1 pbc="T T T"
Si      -0.83124612      -0.01125150      -2.16865312       0.00000000
Si      -1.93130982       0.51073385       1.22497602       0.00000000
Si       1.85947092       1.39951951       0.34900823       0.00000000
Si       0.88343928      -2.18311479       0.19541031       0.00000000
Si       1.00370835      -1.02893571      -3.27604682       0.00000000
Si      -2.85630489      -1.20446046      -1.82211453       0.00000000
Si       3.15441189      -1.67755464      -0.50744254       0.00000000
Si       3.42919161      -0.12846457       1.25574363       0.00000000
Si      -1.28353797       0.36555249       3.43256029       0.00000000
Si      -2.41588845       2.73684706       0.84002080       0.00000000
