10
Lattice="16.28999089631971 0.0 0.0 0.0 16.28999089631971 0.0 0.0 0.0 34.3005442915855" Properties=species:S:1:pos:R:3:initial_magmoms:R:1 pbc="T T T"
Si       0.49578615      -1.27938402      -1.87371428       0.00000000
Si       1.79400141       0.98347617       1.21098482       0.00000000
Si      -1.08274743      -1.96863021       1.02207104       0.00000000
Si      -1.52692686       1.97081307      -0.18513184       0.00000000
Si      -2.29011336      -0.44725824       2.54544138       0.00000000
Si       0.43178274       2.31417369       2.57124913       0.00000000
Si      -1.50312717      -0.83079000      -3.04802837       0.00000000
Si      -3.44411162       1.05823098       1.12035930       0.00000000
Si      -0.56117421       3.82751469       1.01914520       0.00000000
Si       3.38874354       2.17696302      -0.21847199       0.00000000
