10
Lattice="16.28999089631971 0.0 0.0 0.0 16.28999089631971 0.0 0.0 0.0 34.3005442915855" Properties=species:S:1:pos:R:3:initial_magmoms:R:1 pbc="T T T"
Si      -1.33869591      -1.35350352       1.35326013       0.00000000
Si      -1.35521397       1.35575154      -1.35689599       0.00000000
Si       1.35982404      -1.35664749      -1.35569547       0.00000000
Si       1.36477620       1.34952876       1.37548690       0.00000000
Si      -2.62873359      -0.00799839       2.74977327       0.00000000
Si      -2.71174743       2.71169856       0.00250394       0.00000000
Si      -2.70943425      -2.71627605       0.00576249       0.00000000
Si      -2.71238274      -0.00076563      -2.71379198       0.00000000
Si       0.00193851       2.71445157      -2.71307167       0.00000000
Si       0.00200367      -2.71495656      -2.71293447       0.00000000
