10
Lattice="16.28999089631971 0.0 0.0 0.0 16.28999089631971 0.0 0.0 0.0 34.3005442915855" Properties=species:S:1:pos:R:3:initial_magmoms:R:1 pbc="T T T"
Si      -1.74690702      -0.81313164      -1.37761353       0.00000000
Si       2.13946344       0.90543078      -0.48778831       0.00000000
Si      -0.63858429       2.29159575       0.24720416       0.00000000
Si       0.80725095      -1.67604552       1.54201613       0.00000000
Si       1.58768856       2.99713194       0.57642097       0.00000000
Si      -3.39460631      -1.06023465       0.33638563       0.00000000
Si       1.91767509       1.08949149      -2.86985954       0.00000000
Si      -1.24379037      -2.93868342      -2.09154546       0.00000000
Si      -2.39529789       2.40236775       1.77423095       0.00000000
Si       2.92065039      -2.45153097       0.75821396       0.00000000
