10
Lattice="16.28999089631971 0.0 0.0 0.0 16.28999089631971 0.0 0.0 0.0 34.3005442915855" Properties=species:S:1:pos:R:3:initial_magmoms:R:1 pbc="T T T"
Si      -0.80080011       2.11853079       0.64553660       0.00000000
Si       1.83589929      -0.48395961       1.40947875       0.00000000
Si      -1.78484643      -1.51042509       0.35377601       0.00000000
Si       0.27486117       0.54314118      -2.31007435       0.00000000
Si      -2.51691903       2.35475208      -0.94638685       0.00000000
Si      -1.56305808      -1.69448580       2.73584724       0.00000000
Si      -1.89245817       1.20712158      -2.92669558       0.00000000
Si       3.80953053      -0.05543487       0.19791425       0.00000000
Si       1.00152549       3.65425425       0.79481266       0.00000000
Si       1.62088758       2.45521251      -2.61428605       0.00000000
