10
Lattice="16.28999089631971 0.0 0.0 0.0 16.28999089631971 0.0 0.0 0.0 34.3005442915855" Properties=species:S:1:pos:R:3:initial_magmoms:R:1 pbc="T T T"
Si       1.13016762       1.36570473       1.55261985       0.00000000
Si       0.96892920      -1.84520088      -1.18155151       0.00000000
Si       0.45364392       1.16993151      -2.08976183       0.00000000
Si      -1.52948439      -1.41213123       1.41001182       0.00000000
Si      -1.35234693      -0.01409085      -3.14769411       0.00000000
Si       2.17953684      -0.23381037       2.94873853       0.00000000
Si       3.07077903       2.05651476       0.08969597       0.00000000
Si      -0.54778383       2.49189759       2.91886274       0.00000000
Si       2.42043336      -3.06268290       0.17239463       0.00000000
Si       0.81759510       3.58818201      -1.53388690       0.00000000
