10
Lattice="16.28999089631971 0.0 0.0 0.0 16.28999089631971 0.0 0.0 0.0 34.3005442915855" Properties=species:S:1:pos:R:3:initial_magmoms:R:1 pbc="T T T"
Si       1.45150416      -1.21748202       1.35394614       0.00000000
Si       1.21790556      -0.17363511      -2.01001302       0.00000000
Si      -0.96892920       1.84520088       1.18155151       0.00000000
Si      -0.51528528       3.01513239      -0.90821032       0.00000000
Si      -2.32127613       1.83111003      -1.96614260       0.00000000
Si       1.94287572      -2.42628147      -1.82461847       0.00000000
Si      -2.49841359       0.43306965       2.59156333       0.00000000
Si      -3.49956441      -0.46895652      -0.88577775       0.00000000
Si      -0.14323797      -2.41096887       2.78340295       0.00000000
Si       2.61281826       0.27953640       2.73925813       0.00000000
