10
Lattice="16.28999089631971 0.0 0.0 0.0 16.28999089631971 0.0 0.0 0.0 34.3005442915855" Properties=species:S:1:pos:R:3:initial_magmoms:R:1 pbc="T T T"
Si      -1.35654975      -1.35614250      -1.35850812       0.00000000
Si       1.35707103      -1.35760860       1.35765060       0.00000000
Si      -1.35770634       1.35779120       1.35730760       0.00000000
Si       1.35843939       1.35810750      -1.35734190       0.00000000
Si      -0.00065160       2.71424862       2.71372338       0.00000000
Si       2.71437012       2.71511850       0.00034301       0.00000000
Si       2.71469592      -2.71480995       0.00003430       0.00000000
Si      -2.71426098       0.00174303       2.71547271       0.00000000
Si      -0.00008145      -2.71630863       2.71382628       0.00000000
Si      -2.71539150      -2.71477737      -0.00030871       0.00000000
