10
Lattice="16.28999089631971 0.0 0.0 0.0 16.28999089631971 0.0 0.0 0.0 34.3005442915855" Properties=species:S:1:pos:R:3:initial_magmoms:R:1 pbc="T T T"
Si       1.35772263       1.35651717      -1.35720470       0.00000000
Si      -1.35684297      -1.35842310      -1.35682739       0.00000000
Si      -1.35762489       1.35720135       1.35761630       0.00000000
Si       1.35777150      -1.35772263       1.35744480       0.00000000
Si      -0.00195480      -2.71635750      -2.71217985       0.00000000
Si      -2.71477737      -0.00149868       2.71379198       0.00000000
Si       0.00026064      -2.71389771       2.71499250       0.00000000
Si       2.71552671       0.00252495       2.71365478       0.00000000
Si       2.71467963      -2.71480995       0.00044591       0.00000000
Si      -2.71469592       2.71480995      -0.00003430       0.00000000
