10
Lattice="16.28999089631971 0.0 0.0 0.0 16.28999089631971 0.0 0.0 0.0 34.3005442915855" Properties=species:S:1:pos:R:3:initial_magmoms:R:1 pbc="T T T"
Si       2.20954302      -0.34005375      -0.82568316       0.00000000
Si      -0.99248454       0.38827215       2.13517577       0.00000000
Si      -1.50324120      -1.94909850      -0.26044418       0.00000000
Si      -0.76483179       1.76191567      -1.59988118       0.00000000
Si      -1.00802520       2.61647441       1.41311461       0.00000000
Si       2.24634213      -2.61086346      -0.34166791       0.00000000
Si      -3.29018252      -0.72202167      -1.31158495       0.00000000
Si      -2.07559035       0.39236094      -3.01457362       0.00000000
Si       0.94688883      -2.06060355      -2.95605686       0.00000000
Si      -2.54956419       2.71374200      -0.35309000       0.00000000
