10
Lattice="16.28999089631971 0.0 0.0 0.0 16.28999089631971 0.0 0.0 0.0 34.3005442915855" Properties=species:S:1:pos:R:3:initial_magmoms:R:1 pbc="T T T"
Si       2.03183541      -0.93089205      -0.61336268       0.00000000
Si       0.13590747       0.39565152       2.30962844       0.00000000
Si      -0.69590880       1.79309147      -1.36495662       0.00000000
Si      -1.40662521      -1.74824280      -0.74013756       0.00000000
Si       1.63269783      -0.77647914      -2.92563226       0.00000000
Si      -2.86699113      -1.61961696       1.08966030       0.00000000
Si       0.93646323       1.49421558      -3.03024898       0.00000000
Si      -1.97636796      -0.29817216       2.89908362       0.00000000
Si       3.72845520       0.42473365       0.35610845       0.00000000
Si      -2.82919833       1.19330507      -2.19599067       0.00000000
