10
Lattice="16.28999089631971 0.0 0.0 0.0 16.28999089631971 0.0 0.0 0.0 34.3005442915855" Properties=species:S:1:pos:R:3:initial_magmoms:R:1 pbc="T T T"
Si       1.35456237      -1.35684983      -1.35614138       0.00000000
Si       1.35624024       1.35725543       1.35638148       0.00000000
Si      -1.35738054       1.35263396      -1.36049755       0.00000000
Si      -1.35889551      -1.35735482       1.35648438       0.00000000
Si       2.70417258       0.01567212      -2.70825244       0.00000000
Si       2.71350675      -2.71304120      -0.00030871       0.00000000
Si       2.71355562       0.00055486       2.71348327       0.00000000
Si      -0.00130320      -2.71506116       2.71351758       0.00000000
Si       2.71381626       2.71487543       0.00054881       0.00000000
Si      -0.00105885       2.71529897       2.71396348       0.00000000
