10
Lattice="16.28999089631971 0.0 0.0 0.0 16.28999089631971 0.0 0.0 0.0 34.3005442915855" Properties=species:S:1:pos:R:3:initial_magmoms:R:1 pbc="T T T"
Si      -1.35645201      -1.35675175       1.35713609       0.00000000
Si       1.35826020       1.35728280       1.35689599       0.00000000
Si      -1.35778779       1.35751086      -1.35734190       0.00000000
Si       1.35729909      -1.35804354      -1.35758200       0.00000000
Si       2.71265967       0.00200367       2.71348327       0.00000000
Si       2.71487511      -0.00042354      -2.71341467       0.00000000
Si       0.00105885      -2.71529897      -2.71396348       0.00000000
Si       2.71461447      -2.71474412      -0.00048021       0.00000000
Si       2.71484253       2.71461447       0.00003430       0.00000000
Si       0.00135207       2.71388142       2.71578141       0.00000000
