10
Lattice="16.28999089631971 0.0 0.0 0.0 16.28999089631971 0.0 0.0 0.0 34.3005442915855" Properties=species:S:1:pos:R:3:initial_magmoms:R:1 pbc="T T T"
Si      -0.12258225       2.25217721       0.67997437       0.00000000
Si      -2.02799097      -0.80914452      -0.89260356       0.00000000
Si       0.12271257      -1.45776345       1.87600072       0.00000000
Si       1.92192678      -0.78404163      -1.16666506       0.00000000
Si       2.01675087      -2.35355055       0.57827320       0.00000000
Si      -1.17222840       1.61931071       2.73245149       0.00000000
Si      -1.52889795      -3.16236534      -0.83024514       0.00000000
Si       0.39749229       0.09132663       3.63918688       0.00000000
Si       0.18432135      -3.70057065       0.69571833       0.00000000
Si      -1.23435846       3.44128205      -1.08791097       0.00000000
