10
Lattice="16.28999089631971 0.0 0.0 0.0 16.28999089631971 0.0 0.0 0.0 34.3005442915855" Properties=species:S:1:pos:R:3:initial_magmoms:R:1 pbc="T T T"
Si       0.45150993      -1.44901179      -1.76009911       0.00000000
Si      -0.85996539      -1.08201438       1.89071566       0.00000000
Si      -1.95756930       1.18630296      -0.58163465       0.00000000
Si       2.13638463       1.00532106       0.39455938       0.00000000
Si      -1.34249148       1.09022454       2.88426578       0.00000000
Si      -1.32080949       2.37223125      -2.43081233       0.00000000
Si      -2.30791833       2.55264300       1.27333982       0.00000000
Si       2.02123062      -2.97699587      -0.85336372       0.00000000
Si       2.71612944       2.08797075      -1.59597092       0.00000000
Si      -1.40796099      -2.84853130      -2.10910735       0.00000000
