10
Lattice="16.28999089631971 0.0 0.0 0.0 16.28999089631971 0.0 0.0 0.0 34.3005442915855" Properties=species:S:1:pos:R:3:initial_magmoms:R:1 pbc="T T T"
Si      -0.01607823       1.97491815       1.26545069       0.00000000
Si      -2.08090741      -0.07975584      -1.13370222       0.00000000
Si       1.30991148       0.46902168      -1.94048578       0.00000000
Si      -1.00338255      -1.88206189       1.56835896       0.00000000
Si      -2.03519441       1.33507953       2.42388362       0.00000000
Si       1.98283509       1.52632413       2.43976478       0.00000000
Si       2.46850515      -0.96554088       2.41349055       0.00000000
Si      -3.41907747       1.16898669       0.37874682       0.00000000
Si       1.67873337      -1.67727216      -2.90412581       0.00000000
Si       3.12049611       1.83938535      -1.24857481       0.00000000
