10
Lattice="16.28999089631971 0.0 0.0 0.0 16.28999089631971 0.0 0.0 0.0 34.3005442915855" Properties=species:S:1:pos:R:3:initial_magmoms:R:1 pbc="T T T"
Si       1.34092764       1.36954917      -1.38831531       0.00000000
Si      -1.37469681      -1.34415306      -1.38697758       0.00000000
Si      -1.24952445       1.42850268       1.44892440       0.00000000
Si       1.46360763      -1.41446070       1.54565199       0.00000000
Si       2.70114264      -2.67846044      -0.03165942       0.00000000
Si       2.68941384       2.72323188      -0.01365162       0.00000000
Si      -2.74357809      -2.68824259      -0.00929545       0.00000000
Si       2.69783577       0.01295055      -2.74720073       0.00000000
Si      -0.01687644      -2.70108400      -2.74696062       0.00000000
Si      -2.73833271       2.71002069      -0.01193660       0.00000000
