10
Lattice="16.28999089631971 0.0 0.0 0.0 16.28999089631971 0.0 0.0 0.0 34.3005442915855" Properties=species:S:1:pos:R:3:initial_magmoms:R:1 pbc="T T T"
Si       1.40165676      -1.88647389      -0.20844452       0.00000000
Si      -0.17383059       1.29922198       2.07415507       0.00000000
Si      -2.19497976      -1.21330593      -0.64467909       0.00000000
Si       1.00338255       1.88206189      -1.56835896       0.00000000
Si      -1.07752486       1.80230605      -2.70206119       0.00000000
Si      -1.03181186       3.21714142       0.85552465       0.00000000
Si       3.47188770       0.91652101       0.84513158       0.00000000
Si      -2.27425830      -2.70729441       1.20943787       0.00000000
Si       3.51393219      -1.19265021      -0.79789971       0.00000000
Si       0.51103359      -3.20791869      -2.01786785       0.00000000
