10
Lattice="16.28999089631971 0.0 0.0 0.0 16.28999089631971 0.0 0.0 0.0 34.3005442915855" Properties=species:S:1:pos:R:3:initial_magmoms:R:1 pbc="T T T"
Si       1.60060653       1.68252894       0.41095505       0.00000000
Si      -0.72640368      -0.80492148       2.10797543       0.00000000
Si       1.62530217      -1.21894812      -1.28164055       0.00000000
Si      -1.64131524       0.02362050      -1.86481873       0.00000000
Si       0.38648025       1.01017548      -3.16655942       0.00000000
Si       1.18685682      -2.03348070       2.71245426       0.00000000
Si       0.11319921      -2.36708361      -2.73951740       0.00000000
Si       2.01479607       2.48109732      -2.07408647       0.00000000
Si      -2.85008211      -1.74922020       1.87761284       0.00000000
Si       3.53823687       0.58427343       1.48418538       0.00000000
