10
Lattice="16.28999089631971 0.0 0.0 0.0 16.28999089631971 0.0 0.0 0.0 34.3005442915855" Properties=species:S:1:pos:R:3:initial_magmoms:R:1 pbc="T T T"
Si      -1.33633386      -0.28551483      -1.87178175       0.00000000
Si       0.83136015      -1.77991056       1.29590959       0.00000000
Si       1.98809676       1.15885431      -0.77382071       0.00000000
Si      -1.82770542       0.92328462       1.30678287       0.00000000
Si       2.05908858      -0.29468610       2.68560862       0.00000000
Si      -2.06130402       1.96713153      -2.05717629       0.00000000
Si       2.25453600      -0.07424982      -2.88889636       0.00000000
Si      -0.66639132       2.42030304       2.69209485       0.00000000
Si       3.55130145       0.74383398       1.01639430       0.00000000
Si      -0.01855431       0.25832682      -3.86306666       0.00000000
