10
Lattice="16.28999089631971 0.0 0.0 0.0 16.28999089631971 0.0 0.0 0.0 34.3005442915855" Properties=species:S:1:pos:R:3:initial_magmoms:R:1 pbc="T T T"
Si      -1.35635427      -1.35487188      -1.35703319       0.00000000
Si      -1.35690813       1.35708732       1.35699889       0.00000000
Si       1.35744570      -1.35799956       1.35713609       0.00000000
Si       1.35887922       1.35892809      -1.35751340       0.00000000
Si      -2.71441899       0.00091224       2.71454659       0.00000000
Si      -2.71663443      -0.00154755      -2.71262576       0.00000000
Si      -2.71469592      -2.71466334      -0.00013720       0.00000000
Si      -2.71467963       2.71480995      -0.00044591       0.00000000
Si       2.71516833      -0.00043983       2.71458089       0.00000000
Si       2.71523349       2.71490769      -0.00017150       0.00000000
