10
Lattice="16.28999089631971 0.0 0.0 0.0 16.28999089631971 0.0 0.0 0.0 34.3005442915855" Properties=species:S:1:pos:R:3:initial_magmoms:R:1 pbc="T T T"
Si       1.56320469      -0.41502033       1.79021501       0.00000000
Si      -1.98809676      -1.15885431       0.77382071       0.00000000
Si      -0.45320409       2.39506983      -0.15092248       0.00000000
Si       0.26643924      -1.23310413      -2.11507564       0.00000000
Si      -2.10755133       2.18266452      -1.83545745       0.00000000
Si       3.55343544      -0.83730600       0.24758147       0.00000000
Si       0.07099182      -1.45354041       3.45942933       0.00000000
Si      -1.15673661      -2.93876487       2.06973030       0.00000000
Si      -3.32443062      -1.44436914      -1.09796104       0.00000000
Si      -2.00665107      -0.90052749      -3.08924595       0.00000000
