10
Lattice="16.28999089631971 0.0 0.0 0.0 16.28999089631971 0.0 0.0 0.0 34.3005442915855" Properties=species:S:1:pos:R:3:initial_magmoms:R:1 pbc="T T T"
Si      -0.95275323      -1.83212001      -1.08190837       0.00000000
Si       1.82099394       1.01978139      -1.06479239       0.00000000
Si       0.88909191      -1.17421578       1.87596642       0.00000000
Si      -1.81472229       1.61968279       0.19541031       0.00000000
Si       0.43790778       2.24456393      -2.47293342       0.00000000
Si      -2.28838662      -0.50772672      -2.47986214       0.00000000
Si      -0.79962723       3.50856368      -0.89562201       0.00000000
Si      -0.36140994      -3.33153306       1.99444056       0.00000000
Si      -2.61635319      -2.89352754       0.41771226       0.00000000
Si      -3.67546383       0.80790255      -1.12450967       0.00000000
