10
Lattice="16.28999089631971 0.0 0.0 0.0 16.28999089631971 0.0 0.0 0.0 34.3005442915855" Properties=species:S:1:pos:R:3:initial_magmoms:R:1 pbc="T T T"
Si       0.95275323       1.83212001       1.08190837       0.00000000
Si      -1.33563339       1.32439329      -1.39795376       0.00000000
Si       1.38961845      -1.37380086      -1.37428638       0.00000000
Si      -1.66359996      -1.06140753       1.49962063       0.00000000
Si       0.59134329      -1.49941305       3.07634894       0.00000000
Si       1.84184514       0.65790423       2.95787479       0.00000000
Si      -0.86196906       3.45180280       1.27731868       0.00000000
Si      -2.72271060       2.64002256      -0.04260130       0.00000000
Si       2.88877086      -2.52424953       0.10269589       0.00000000
Si      -2.68107336      -0.02296890      -2.75066509       0.00000000
