10
Lattice="16.28999089631971 0.0 0.0 0.0 16.28999089631971 0.0 0.0 0.0 34.3005442915855" Properties=species:S:1:pos:R:3:initial_magmoms:R:1 pbc="T T T"
Si      -1.64602305      -1.40095629      -0.77299750       0.00000000
Si       0.48319398       1.15567029      -1.95869938       0.00000000
Si      -0.76626531       1.52715722       1.59511340       0.00000000
Si       1.95432759      -1.28471085       0.35305570       0.00000000
Si       2.56029930       1.94215637      -1.35476935       0.00000000
Si      -3.53330100      -0.62100738       0.32273400       0.00000000
Si       1.12516659       2.64382532       2.20497742       0.00000000
Si       0.20841426      -0.39341979      -3.72188554       0.00000000
Si      -2.06255835      -0.89897994      -3.01903269       0.00000000
Si       3.72555558       0.03474657      -0.59000399       0.00000000
