10
Lattice="16.28999089631971 0.0 0.0 0.0 16.28999089631971 0.0 0.0 0.0 34.3005442915855" Properties=species:S:1:pos:R:3:initial_magmoms:R:1 pbc="T T T"
Si       1.54388475      -1.21138956       1.25968819       0.00000000
Si       1.32747210       0.92779695      -1.72734208       0.00000000
Si      -1.91176182      -1.24178670      -0.66704306       0.00000000
Si      -0.69678846       1.66232934       1.54956225       0.00000000
Si      -0.25834311       2.47686192      -2.44453256       0.00000000
Si       2.82950784      -2.31164874      -0.38817948       0.00000000
Si       2.89129581       2.26237149      -0.48950334       0.00000000
Si      -2.96140797      -1.87465320       1.38543406       0.00000000
Si      -1.27653327       0.57967965       3.54009255       0.00000000
Si       2.76934887       0.24801525       2.67386612       0.00000000
