10
Lattice="16.28999089631971 0.0 0.0 0.0 16.28999089631971 0.0 0.0 0.0 34.3005442915855" Properties=species:S:1:pos:R:3:initial_magmoms:R:1 pbc="T T T"
Si       1.86164956      -0.02641586       1.44690067       0.00000000
Si      -0.91004085      -1.39771688      -1.70340028       0.00000000
Si       0.94340670       1.90678197      -1.13322202       0.00000000
Si      -1.75303206      -0.31886535       1.65935836       0.00000000
Si      -2.07529713       0.50969292      -2.46816564       0.00000000
Si      -1.13546187       3.07327629       0.97029434       0.00000000
Si      -2.52472194       2.16652602      -0.80801837       0.00000000
Si       1.18623847       3.29643300       0.70748342       0.00000000
Si      -1.97768745      -2.67234422       1.43688490       0.00000000
Si       1.55130389      -2.04346877       2.60934676       0.00000000
