10
Lattice="16.28999089631971 0.0 0.0 0.0 16.28999089631971 0.0 0.0 0.0 34.3005442915855" Properties=species:S:1:pos:R:3:initial_magmoms:R:1 pbc="T T T"
Si       1.34148150      -1.37020077       1.34139214       0.00000000
Si      -1.34166069      -1.36660068      -1.37462938       0.00000000
Si       1.37308410       1.34980569      -1.37442358       0.00000000
Si      -1.42907283       1.36511829       1.51021951       0.00000000
Si       2.53470675      -0.01756062       2.81789419       0.00000000
Si      -2.69275329      -2.70273254      -0.01567536       0.00000000
Si      -2.70448209       2.69895978       0.00233244       0.00000000
Si       2.71213743       2.70273906      -0.02130065       0.00000000
Si      -2.69606016      -0.01132155      -2.73121667       0.00000000
Si       0.01886382       2.70176166      -2.73114806       0.00000000
