10
Lattice="16.28999089631971 0.0 0.0 0.0 16.28999089631971 0.0 0.0 0.0 34.3005442915855" Properties=species:S:1:pos:R:3:initial_magmoms:R:1 pbc="T T T"
Si      -0.73480932       1.97563491      -1.24692838       0.00000000
Si       1.83182583      -0.81013428      -1.41736788       0.00000000
Si      -1.67699034      -1.81897398       0.16532872       0.00000000
Si      -1.35604476       0.03500721       2.90234218       0.00000000
Si      -2.13195375       0.57254463      -2.72504256       0.00000000
Si      -1.53699408       3.09397599       0.72178676       0.00000000
Si       0.63860058      -2.16277443      -2.89386994       0.00000000
Si      -0.64591479      -3.42586356      -1.32811782       0.00000000
Si      -3.48606000      -0.71359974      -1.18529027       0.00000000
Si       2.77538336      -2.67866244      -0.27450741       0.00000000
