10
Lattice="16.28999089631971 0.0 0.0 0.0 16.28999089631971 0.0 0.0 0.0 34.3005442915855" Properties=species:S:1:pos:R:3:initial_magmoms:R:1 pbc="T T T"
Si       1.34081265      -1.34213310      -1.41548135       0.00000000
Si      -1.35249354       1.39312080      -1.38550266       0.00000000
Si       1.68608735       1.08984987       1.32341864       0.00000000
Si      -1.40325318      -1.27666359       1.59415299       0.00000000
Si       3.41136125      -0.74010357       1.24037698       0.00000000
Si       2.55721139      -2.72000646      -0.00233244       0.00000000
Si       0.00175932      -2.69506647      -2.76860428       0.00000000
Si      -2.71248048       0.01663209      -2.76284179       0.00000000
Si      -2.80039761      -2.67975387       0.11603881       0.00000000
Si       2.72266892       0.01537776      -2.76332199       0.00000000
