10
Lattice="16.28999089631971 0.0 0.0 0.0 16.28999089631971 0.0 0.0 0.0 34.3005442915855" Properties=species:S:1:pos:R:3:initial_magmoms:R:1 pbc="T T T"
Si       1.46647534       0.68103603      -1.68227113       0.00000000
Si       0.93477300      -1.46707740       1.55717698       0.00000000
Si      -1.22546412      -1.45940481      -1.41417793       0.00000000
Si      -0.54032301       2.08220409       1.02253410       0.00000000
Si      -2.53335564      -1.20733335       1.88238062       0.00000000
Si      -2.08393083      -2.86416644       0.22223335       0.00000000
Si       1.17760477      -0.07742637       3.39788242       0.00000000
Si       2.04823034      -1.25936361      -2.83147721       0.00000000
Si       0.12194694       2.01435624      -3.16336947       0.00000000
Si       3.00323159      -2.14760844       0.77090516       0.00000000
