10
Lattice="16.28999089631971 0.0 0.0 0.0 16.28999089631971 0.0 0.0 0.0 34.3005442915855" Properties=species:S:1:pos:R:3:initial_magmoms:R:1 pbc="T T T"
Si      -1.24092447       1.23320187      -1.54067841       0.00000000
Si      -1.76442270      -1.08035280       1.14457550       0.00000000
Si       1.78859639      -1.34426709      -0.78764384       0.00000000
Si       0.78024539       1.50594534       1.77320193       0.00000000
Si      -0.41989430      -2.41367301       2.62567383       0.00000000
Si      -1.31208198       2.65802301       2.10605460       0.00000000
Si       3.21338495      -1.08279630       1.38176390       0.00000000
Si      -3.00112692       0.93735918       1.95537222       0.00000000
Si      -0.28982679       3.07183788      -2.52095421       0.00000000
Si       3.07101035      -0.44080740      -2.54503321       0.00000000
