10
Lattice="16.28999089631971 0.0 0.0 0.0 16.28999089631971 0.0 0.0 0.0 34.3005442915855" Properties=species:S:1:pos:R:3:initial_magmoms:R:1 pbc="T T T"
Si      -1.35764118      -1.35785295       1.35693029       0.00000000
Si      -1.35757602       1.35749457      -1.35782211       0.00000000
Si       1.35829278       1.35705474       1.35795931       0.00000000
Si       1.35769005      -1.35788553      -1.35816511       0.00000000
Si      -2.71393029       0.00151497      -2.71516400       0.00000000
Si      -2.71505430       2.71464705      -0.00106332       0.00000000
Si       2.71506940       2.71471221      -0.00041161       0.00000000
Si       2.71475963      -2.71518462      -0.00085751       0.00000000
Si       0.00084708      -2.71407690      -2.71622732       0.00000000
Si      -2.71536381      -2.71541268      -0.00051451       0.00000000
