10
Lattice="16.28999089631971 0.0 0.0 0.0 16.28999089631971 0.0 0.0 0.0 34.3005442915855" Properties=species:S:1:pos:R:3:initial_magmoms:R:1 pbc="T T T"
Si       1.35123921       1.35609363      -1.37095922       0.00000000
Si      -1.36415718      -1.36257705      -1.37301725       0.00000000
Si      -1.38961845       1.37380086       1.37428638       0.00000000
Si       1.49915241      -1.15044867       1.47698226       0.00000000
Si       0.18151947      -2.74963797       2.58122030       0.00000000
Si       2.71262709      -2.69878059       0.00761473       0.00000000
Si      -2.72525184       2.69819415      -0.02366739       0.00000000
Si       2.70866862       2.71972953       0.01670437       0.00000000
Si      -2.72310156      -2.70762606       0.00380736       0.00000000
Si       2.71257822      -0.00333945      -2.73059926       0.00000000
