10
Lattice="16.28999089631971 0.0 0.0 0.0 16.28999089631971 0.0 0.0 0.0 34.3005442915855" Properties=species:S:1:pos:R:3:initial_magmoms:R:1 pbc="T T T"
Si       0.50311665      -2.12555178      -0.71393193       0.00000000
Si       1.74690702       0.81313164       1.37761353       0.00000000
Si      -1.64769929      -0.24710301       1.71399916       0.00000000
Si      -0.46563336       1.08326871      -2.14392242       0.00000000
Si      -1.66577305      -2.83634964      -1.29145051       0.00000000
Si       1.96750620      -1.50547293      -2.53536045       0.00000000
Si       1.10832273       3.10472739       1.62481769       0.00000000
Si      -2.55796073       2.23534638      -1.81106975       0.00000000
Si       1.54655631       2.36700216      -2.64896391       0.00000000
Si      -0.72110943      -1.64784753       3.44171854       0.00000000
