10
Lattice="16.28999089631971 0.0 0.0 0.0 16.28999089631971 0.0 0.0 0.0 34.3005442915855" Properties=species:S:1:pos:R:3:initial_magmoms:R:1 pbc="T T T"
Si      -1.35456237       1.35684983       1.35614138       0.00000000
Si       1.35894438      -1.35619137       1.35583267       0.00000000
Si       1.34961021       1.37252195      -1.35211106       0.00000000
Si      -1.34690607      -1.36089918      -1.37215631       0.00000000
Si      -2.44595979       0.13434363      -2.84467264       0.00000000
Si       2.64122802       0.03378546      -2.72463439       0.00000000
Si      -2.71194291       2.70948379      -0.00435617       0.00000000
Si      -2.71345788      -0.00050499       2.71262576       0.00000000
Si       0.00167787       2.71410526       2.71252286       0.00000000
Si       2.71450044       2.71284116      -0.00411607       0.00000000
