10
Lattice="16.28999089631971 0.0 0.0 0.0 16.28999089631971 0.0 0.0 0.0 34.3005442915855" Properties=species:S:1:pos:R:3:initial_magmoms:R:1 pbc="T T T"
Si      -1.23768162       1.27584909      -1.64862228       0.00000000
Si       1.48509155       1.38748446       1.33586974       0.00000000
Si      -1.66109130      -0.97599906       1.74675619       0.00000000
Si       1.46896934      -1.43817894      -1.64255108       0.00000000
Si      -2.44719783      -2.59432911      -0.18834439       0.00000000
Si       2.69968373       2.50186707      -0.36711893       0.00000000
Si      -2.56222152       2.78182182      -0.27392430       0.00000000
Si      -2.59511103      -0.08778681      -3.03628588       0.00000000
Si       0.12238677       2.62781902      -3.03964733       0.00000000
Si       3.27203288       0.16040763       2.38701051       0.00000000
