10
Lattice="16.28999089631971 0.0 0.0 0.0 16.28999089631971 0.0 0.0 0.0 34.3005442915855" Properties=species:S:1:pos:R:3:initial_magmoms:R:1 pbc="T T T"
Si       0.70358139       0.04483008       2.19722549       0.00000000
Si      -1.95432759       1.28471085      -0.35305570       0.00000000
Si      -0.57743163      -2.25375408      -0.50939767       0.00000000
Si       1.77122799       1.31945742      -0.94305969       0.00000000
Si       0.92823678       2.39830895       2.41969895       0.00000000
Si      -1.47113361       2.44038114      -2.31175508       0.00000000
Si       0.60597171       3.22686722      -1.70782505       0.00000000
Si       0.54817479      -2.68221366      -2.51502021       0.00000000
Si      -3.60035064      -0.11624544      -1.12605320       0.00000000
Si       2.84333805      -0.94244166       2.33411904       0.00000000
