10
Lattice="16.28999089631971 0.0 0.0 0.0 16.28999089631971 0.0 0.0 0.0 34.3005442915855" Properties=species:S:1:pos:R:3:initial_magmoms:R:1 pbc="T T T"
Si      -1.23353419      -1.94696451       0.34698450       0.00000000
Si       0.12465108       1.29775914       1.97519795       0.00000000
Si       2.03120010      -1.17271710      -0.39459368       0.00000000
Si      -0.92658986       1.40074452      -1.72771938       0.00000000
Si       3.27526740       0.78493365      -0.52208888       0.00000000
Si      -2.95146197       0.21266595      -2.02836382       0.00000000
Si      -1.81676400       0.53168931       3.23279381       0.00000000
Si      -0.38692660      -3.12978141       2.17993801       0.00000000
Si       1.95369228      -2.11038579      -2.56242359       0.00000000
Si       0.72110943       1.64784753      -3.44171854       0.00000000
