10
Lattice="16.28999089631971 0.0 0.0 0.0 16.28999089631971 0.0 0.0 0.0 34.3005442915855" Properties=species:S:1:pos:R:3:initial_magmoms:R:1 pbc="T T T"
Si      -2.04638761      -0.83966805      -0.74085787       0.00000000
Si       1.33817007      -1.24874253      -1.51244905       0.00000000
Si      -0.09166733       2.41272819      -0.45959325       0.00000000
Si       1.38388307       0.16609284       2.04513680       0.00000000
Si       0.49156248      -0.06592563      -3.34540256       0.00000000
Si      -1.83013786      -0.28908234      -3.08259164       0.00000000
Si       3.40299924       0.80593146       0.88670387       0.00000000
Si       3.41907747      -1.16898669      -0.37874682       0.00000000
Si      -1.94247370      -3.19344273      -0.13421810       0.00000000
Si      -0.62588332       3.21194817       1.88323814       0.00000000
