10
Lattice="16.28999089631971 0.0 0.0 0.0 16.28999089631971 0.0 0.0 0.0 34.3005442915855" Properties=species:S:1:pos:R:3:initial_magmoms:R:1 pbc="T T T"
Si       1.35631752       1.35689184       1.35713609       0.00000000
Si      -1.35840676      -1.35842310       1.35741050       0.00000000
Si      -1.35785290       1.35834165      -1.36159517       0.00000000
Si       1.35601942      -1.36036161      -1.36186957       0.00000000
Si       2.71445881      -0.00115659       2.71437509       0.00000000
Si       2.71344883      -2.71552671       0.00068601       0.00000000
Si      -0.00102741       2.71417464       2.71516400       0.00000000
Si      -2.71524973      -2.71461447      -0.00065171       0.00000000
Si      -0.00133718      -2.71572219       2.71471810       0.00000000
Si       2.71515928       2.71552671      -0.00106332       0.00000000
