10
Lattice="16.28999089631971 0.0 0.0 0.0 16.28999089631971 0.0 0.0 0.0 34.3005442915855" Properties=species:S:1:pos:R:3:initial_magmoms:R:1 pbc="T T T"
Si      -1.78694132       1.22707683      -1.05114077       0.00000000
Si       1.25993376      -1.62676827      -1.27104168       0.00000000
Si      -0.53051643      -1.83083310       1.53676814       0.00000000
Si       1.50324120       1.94909850       0.26044418       0.00000000
Si       0.51075666       2.33737065       2.39561995       0.00000000
Si       2.45013003      -0.11150505      -2.69561268       0.00000000
Si      -0.57234915       2.34145944      -2.75412944       0.00000000
Si       3.74958333      -0.66176496      -0.08122373       0.00000000
Si      -1.56359728       1.49363010       3.20374123       0.00000000
Si      -1.43034345      -0.84867642       3.52170745       0.00000000
