10
Lattice="10.86 0.0 0.0 0.0 10.86 0.0 0.0 0.0 10.86" Properties=species:S:1:pos:R:3:initial_magmoms:R:1 pbc="T T T"
Si      -1.31100834      -1.07338068       1.45557666       0.00000000
Si      -1.31100834       1.64161932      -1.25942334       0.00000000
Si       1.63156296      -0.47759022      -1.89295230       0.00000000
Si       1.40399166       1.64161932       1.45557666       0.00000000
Si       0.00726534      -2.15418960      -2.42008584       0.00000000
Si      -2.66850834      -2.43088068       0.09807666       0.00000000
Si       0.04649166      -2.43088068       2.81307666       0.00000000
Si      -2.66850834       0.28411932      -2.61692334       0.00000000
Si       0.00659202       2.92253460      -2.51563212       0.00000000
Si      -2.66850834       0.28411932       2.81307666       0.00000000
