10
Lattice="10.86 0.0 0.0 0.0 10.86 0.0 0.0 0.0 10.86" Properties=species:S:1:pos:R:3:initial_magmoms:R:1 pbc="T T T"
Si       1.29014628       1.41623088       1.18631382       0.00000000
Si       1.29014628      -1.29876912      -1.52868618       0.00000000
Si      -1.42485372       1.41623088      -1.52868618       0.00000000
Si      -0.11530062      -2.30563230       2.43319386       0.00000000
Si      -2.57831604       0.14296104       2.48753730       0.00000000
Si       2.64764628       0.05873088       2.54381382       0.00000000
Si       2.64764628      -2.65626912      -0.17118618       0.00000000
Si      -0.06735372       2.77373088       2.54381382       0.00000000
Si       2.64764628       2.77373088      -0.17118618       0.00000000
Si       2.64764628       0.05873088      -2.88618618       0.00000000
