10
Lattice="10.86 0.0 0.0 0.0 10.86 0.0 0.0 0.0 10.86" Properties=species:S:1:pos:R:3:initial_magmoms:R:1 pbc="T T T"
Si       1.27093494      -1.29747678      -1.40448036       0.00000000
Si       1.27093494       1.41752322       1.31051964       0.00000000
Si      -1.44406506       1.41752322      -1.40448036       0.00000000
Si      -0.00592956      -2.51750004       2.61010326       0.00000000
Si       2.62843494      -2.65497678      -0.04698036       0.00000000
Si       2.62843494       0.06002322       2.66801964       0.00000000
Si      -2.52421152      -0.03174378       2.82997482       0.00000000
Si       2.62843494       0.06002322      -2.76198036       0.00000000
Si       2.62843494       2.77502322      -0.04698036       0.00000000
Si      -0.08656506      -2.65497678      -2.76198036       0.00000000
