10
Lattice="16.290000149 0.0 0.0 0.0 16.290000149 0.0 0.0 0.0 29.1751946751" Properties=species:S:1:pos:R:3:initial_magmoms:R:1 pbc="T T T"
Si      -1.35047033      -1.32172174       1.38683996       0.00000000
Si      -1.38629367       1.33485148      -1.37044934       0.00000000
Si       1.35428545       1.37608147       1.36265372       0.00000000
Si       1.38626272      -1.36560700      -1.35108284       0.00000000
Si       2.66869298       0.13307301      -2.62790898       0.00000000
Si      -2.68607441      -2.67630041       0.01070438       0.00000000
Si      -2.61123832      -0.14696838      -2.76849549       0.00000000
Si       0.01700676      -2.67509495       2.74611228       0.00000000
Si      -2.70474275       0.04326624       2.73925611       0.00000000
Si       2.72968274       0.02627577       2.72154677       0.00000000
