10
Lattice="16.290000149 0.0 0.0 0.0 16.290000149 0.0 0.0 0.0 29.1751946751" Properties=species:S:1:pos:R:3:initial_magmoms:R:1 pbc="T T T"
Si      -0.68448952       2.04979027       0.76897061       0.00000000
Si       2.05635188      -0.60979498       0.89074787       0.00000000
Si      -1.24046722      -1.78845957       0.84389251       0.00000000
Si      -0.63602677      -0.68055385      -2.14589392       0.00000000
Si      -0.67958623      -2.82520405      -1.16432367       0.00000000
H        0.69263452       2.30827999      -2.13641198       0.00000000
Si      -1.29055897       1.53079086       2.95282145       0.00000000
Si      -3.52326639       0.78338937      -0.77465977       0.00000000
Si       1.53181387      -1.86251391       2.82199988       0.00000000
Si       1.08190036       3.53292962       0.43608163       0.00000000
