10
Lattice="16.290000149 0.0 0.0 0.0 16.290000149 0.0 0.0 0.0 29.1751946751" Properties=species:S:1:pos:R:3:initial_magmoms:R:1 pbc="T T T"
Si       1.08119989      -1.42112332      -1.49829212       0.00000000
Si      -1.54556263       1.32273172      -1.18708032       0.00000000
Si      -1.05598297      -1.76262689       1.18092435       0.00000000
Si       2.12793014       0.96989032       0.68021966       0.00000000
Si       0.22190238       0.80834239       3.38651072       0.00000000
Si       2.37750923      -2.71422353      -0.07226696       0.00000000
Si      -0.20248470       2.70176168      -2.49978903       0.00000000
Si      -1.39997890      -0.87884551       3.31584840       0.00000000
Si       2.49597011      -0.09524763      -2.73742099       0.00000000
Si       0.54618742      -3.53856270       1.09243599       0.00000000
