10
Lattice="16.290000149 0.0 0.0 0.0 16.290000149 0.0 0.0 0.0 29.1751946751" Properties=species:S:1:pos:R:3:initial_magmoms:R:1 pbc="T T T"
Si      -0.90950329       0.89873560      -0.80517702       0.00000000
Si       0.90813493      -1.56643012       1.49584141       0.00000000
H       -2.01378611      -0.34837794       1.41056231       0.00000000
Si       1.92754685       0.58642372       1.88970653       0.00000000
Si       1.87782977      -1.97179049      -0.65591673       0.00000000
Si      -1.39834990      -1.65548104       1.84325962       0.00000000
Si      -2.22402485      -0.56887939      -2.08331313       0.00000000
Si       0.43618104       2.20791404      -2.19592938       0.00000000
Si      -2.05213277       2.32764554       0.65725879       0.00000000
Si       3.04798935       2.02727423       0.33942421       0.00000000
