10
Lattice="16.290000149 0.0 0.0 0.0 16.290000149 0.0 0.0 0.0 29.1751946751" Properties=species:S:1:pos:R:3:initial_magmoms:R:1 pbc="T T T"
Si       0.65808343      -0.44184996       2.12571927       0.00000000
Si      -1.06841224      -1.76438621      -1.05439154       0.00000000
Si      -1.70583995       1.59247783      -0.01283709       0.00000000
Si       1.79030360       0.57891403      -1.44250915       0.00000000
Si      -0.31273542       3.02603043      -1.19119402       0.00000000
H        3.09795078       1.10570005      -0.51164539       0.00000000
H       -0.49005207      -3.05896881       1.32840496       0.00000000
Si      -1.99436843      -0.72611047      -2.89204952       0.00000000
Si       0.76447342       1.91816381      -3.05627669       0.00000000
Si      -1.24890544      -1.23657391       3.25212102       0.00000000
