10
Lattice="16.290000149 0.0 0.0 0.0 16.290000149 0.0 0.0 0.0 29.1751946751" Properties=species:S:1:pos:R:3:initial_magmoms:R:1 pbc="T T T"
Si      -0.92595619       1.03827574      -1.83765799       0.00000000
Si       1.06841224       1.76438621       1.05439154       0.00000000
Si       1.34307793      -1.54300510      -1.14859824       0.00000000
Si      -1.93424204      -1.03816171       0.89836259       0.00000000
H        0.57836017      -1.29458260       2.38279650       0.00000000
Si       0.74437156      -2.67929940       1.75835981       0.00000000
Si      -1.69158620      -1.00802521      -2.71874887       0.00000000
Si      -0.46520982      -2.87110438      -1.75943929       0.00000000
Si      -2.22697334       2.53970876      -0.52103980       0.00000000
Si      -1.18651474      -3.22231027       0.50394314       0.00000000
