10
Lattice="16.290000149 0.0 0.0 0.0 16.290000149 0.0 0.0 0.0 29.1751946751" Properties=species:S:1:pos:R:3:initial_magmoms:R:1 pbc="T T T"
Si      -1.37165059      -1.34860024      -1.33561124       0.00000000
Si      -1.36546039       1.34646625       1.35019883       0.00000000
Si       1.32603859      -1.38298843       1.35968077       0.00000000
Si       1.38352893       1.33314103      -1.36860838       0.00000000
Si       0.06942798      -2.68018232      -2.61768599       0.00000000
Si       2.69708808      -0.01387908       2.68359276       0.00000000
Si      -0.00684180       2.70767495       2.68592677       0.00000000
Si      -2.69596244       2.71041167      -0.02713293       0.00000000
Si       0.05426199       2.74064592      -2.68157967       0.00000000
Si      -2.72147258      -0.03041343       2.70570755       0.00000000
