10
Lattice="16.290000149 0.0 0.0 0.0 16.290000149 0.0 0.0 0.0 29.1751946751" Properties=species:S:1:pos:R:3:initial_magmoms:R:1 pbc="T T T"
Si      -1.34231230      -1.32093982       1.40164054       0.00000000
Si      -1.31618314       1.48377466      -1.27499393       0.00000000
Si       1.34296553      -1.39209454      -1.36230071       0.00000000
Si       1.37320466       1.36479250       1.36706793       0.00000000
Si       2.64240092       0.10404423      -2.60999220       0.00000000
Si      -2.67977018      -2.61967637      -0.02617015       0.00000000
Si      -2.55728567       2.78884444       0.22112172       0.00000000
Si       0.02451645      -2.68367978       2.74740474       0.00000000
Si       2.72925921      -2.72694602       0.00814863       0.00000000
Si      -2.67760361       0.02218698       2.79388083       0.00000000
