10
Lattice="16.290000149 0.0 0.0 0.0 16.290000149 0.0 0.0 0.0 29.1751946751" Properties=species:S:1:pos:R:3:initial_magmoms:R:1 pbc="T T T"
Si      -1.29912751       1.11118815      -1.56052281       0.00000000
Si      -1.89783389      -0.02510615       1.34643523       0.00000000
Si       1.58312737       1.68412375       0.44390059       0.00000000
Si       0.39521169      -2.29316124       0.36150984       0.00000000
H        1.80035453       0.61043680      -2.30953759       0.00000000
H        2.47749725      -0.35992104       1.85831402       0.00000000
H       -2.06384528       1.35961065       1.97087193       0.00000000
Si       1.98107579      -2.45452998      -1.34649358       0.00000000
Si      -1.11143413      -1.27532945       3.07876785       0.00000000
Si       0.79518007       2.30943169       2.62026829       0.00000000
