10
Lattice="16.290000149 0.0 0.0 0.0 16.290000149 0.0 0.0 0.0 29.1751946751" Properties=species:S:1:pos:R:3:initial_magmoms:R:1 pbc="T T T"
Si      -1.39118230      -1.34179102      -1.28031841       0.00000000
Si       1.32926694      -1.40750488       1.31297129       0.00000000
Si      -1.42558678       1.35663121       1.27338055       0.00000000
Si       1.29650482       1.32251995      -1.46083117       0.00000000
Si       2.63210890       2.67709862      -0.08469559       0.00000000
Si       2.66651501      -0.03280806       2.65783106       0.00000000
Si      -0.07035651       2.69465924       2.64169718       0.00000000
Si      -0.13343139      -2.73328283      -2.65741677       0.00000000
Si      -2.75022444      -0.03023424       2.65444674       0.00000000
Si       2.67792453      -2.73204480      -0.09645319       0.00000000
