10
Lattice="16.290000149 0.0 0.0 0.0 16.290000149 0.0 0.0 0.0 29.1751946751" Properties=species:S:1:pos:R:3:initial_magmoms:R:1 pbc="T T T"
Si       1.39057957      -1.35537232       1.28351893       0.00000000
Si      -1.05060727      -1.85354952      -0.94476574       0.00000000
Si      -1.50884497       1.23190683       1.28069769       0.00000000
Si       0.85600693       1.73121162      -1.40326530       0.00000000
H       -2.00301842       0.78139058      -2.05266167       0.00000000
Si      -1.83700703      -0.60332622      -2.67709836       0.00000000
H        2.53832411      -0.93814111      -2.16521957       0.00000000
Si      -0.10296909       2.66949934       2.52262154       0.00000000
Si       2.56111382       2.68673416      -0.11533538       0.00000000
Si      -0.85488292       3.39850943      -1.25534736       0.00000000
