10
Lattice="16.290000149 0.0 0.0 0.0 16.290000149 0.0 0.0 0.0 29.1751946751" Properties=species:S:1:pos:R:3:initial_magmoms:R:1 pbc="T T T"
Si       1.34456032       1.33053463      -1.33099572       0.00000000
Si      -1.33372747       1.41827257       1.28656773       0.00000000
Si       1.42184008      -1.34675947       1.27513106       0.00000000
Si      -1.36474363      -1.28089242      -1.40742598       0.00000000
Si       0.04126257      -2.69127092       2.60569499       0.00000000
Si      -2.69101028       0.04587916       2.61762764       0.00000000
Si      -0.03916116      -2.76581397      -2.61496686       0.00000000
Si       2.77208562       0.04136520       2.61085900       0.00000000
Si       0.04891887       2.76842037       2.61543950       0.00000000
Si      -2.72192870      -2.67357998      -0.10027514       0.00000000
