10
Lattice="16.290000149 0.0 0.0 0.0 16.290000149 0.0 0.0 0.0 29.1751946751" Properties=species:S:1:pos:R:3:initial_magmoms:R:1 pbc="T T T"
Si       1.24313878      -1.38816865       1.37178848       0.00000000
Si      -1.35953083       1.34985457       1.33269372       0.00000000
Si      -1.29430567      -1.43607754      -1.31320469       0.00000000
Si       1.45614682       1.29821527      -1.30299337       0.00000000
Si       2.68306076      -0.05880690       2.58305504       0.00000000
Si      -2.64995948      -0.07058457      -2.65068314       0.00000000
Si       0.09194076       2.62278776      -2.68403038       0.00000000
Si       0.02753010       2.70150104       2.62687618       0.00000000
Si      -2.60244155      -2.78306345       0.10891100       0.00000000
Si       0.12958695      -2.79947562      -2.61138415       0.00000000
