10
Lattice="16.290000149 0.0 0.0 0.0 16.290000149 0.0 0.0 0.0 29.1751946751" Properties=species:S:1:pos:R:3:initial_magmoms:R:1 pbc="T T T"
Si       1.35900955      -1.32304623      -1.38726592       0.00000000
Si      -1.35033676      -1.41146835       1.30997499       0.00000000
Si       1.32667390       1.29525364       1.44774026       0.00000000
Si      -1.30824177       1.38309257      -1.38838333       0.00000000
Si       2.69404022       2.62907070       0.12527829       0.00000000
Si      -0.08114049      -2.67221663      -2.66708514       0.00000000
Si      -2.68382639       2.67582300       0.01286626       0.00000000
Si      -2.64085663      -0.06772253       2.76006969       0.00000000
Si       2.69609276      -2.71940876      -0.01436295       0.00000000
Si       0.01523115      -2.75762510       2.67940028       0.00000000
