10
Lattice="16.290000149 0.0 0.0 0.0 16.290000149 0.0 0.0 0.0 29.1751946751" Properties=species:S:1:pos:R:3:initial_magmoms:R:1 pbc="T T T"
Si      -1.32118417      -1.33910317      -1.39458014       0.00000000
Si       1.35842311       1.31124727      -1.40054355       0.00000000
Si       1.35208630      -1.36792018       1.35448759       0.00000000
Si      -1.37960011       1.35835795       1.33631144       0.00000000
Si       2.69632082       2.68543910      -0.03696497       0.00000000
Si      -2.70126158      -2.69741225      -0.03471848       0.00000000
Si      -0.02189376       2.71614575       2.68884429       0.00000000
Si       0.09306477      -2.72919404      -2.67843458       0.00000000
Si       2.69664662      -0.00904095       2.71731928       0.00000000
Si      -0.01034415       2.66784590      -2.76088368       0.00000000
