10
Lattice="16.290000149 0.0 0.0 0.0 16.290000149 0.0 0.0 0.0 29.1751946751" Properties=species:S:1:pos:R:3:initial_magmoms:R:1 pbc="T T T"
Si       1.42073236       1.31048164       1.31294211       0.00000000
Si       1.37779192      -1.34912152      -1.31997333       0.00000000
Si      -1.34858395      -1.35767377       1.35250367       0.00000000
Si      -1.36391284       1.39300678      -1.30424790       0.00000000
Si       0.05986575       2.68156208       2.57479846       0.00000000
Si       0.00895950      -2.70966233      -2.65062479       0.00000000
Si       2.72935695       0.04184901      -2.64566500       0.00000000
Si       0.00807984       2.73670374      -2.64610263       0.00000000
Si      -2.71643897       0.04031775      -2.66783815       0.00000000
Si       2.73579150      -2.67687056       0.06745305       0.00000000
