10
Lattice="16.290000149 0.0 0.0 0.0 16.290000149 0.0 0.0 0.0 29.1751946751" Properties=species:S:1:pos:R:3:initial_magmoms:R:1 pbc="T T T"
Si      -0.64526320       0.84079207      -1.07965725       0.00000000
Si       2.14775507       0.25208775       1.31445922       0.00000000
Si       2.25245090      -1.47929491      -0.49238976       0.00000000
Si       0.38926584       1.22464963       2.57249362       0.00000000
Si      -2.07604649       2.06881373       0.20533502       0.00000000
Si       0.41907654      -2.66617455      -1.50056779       0.00000000
Si      -2.08518518      -0.48856968      -2.29092381       0.00000000
Si      -0.69263452      -2.30827999       2.13641198       0.00000000
Si      -1.37712403      -0.25848972       2.90538259       0.00000000
Si       0.85470373       2.20283156      -2.24109258       0.00000000
