10
Lattice="16.290000149 0.0 0.0 0.0 16.290000149 0.0 0.0 0.0 29.1751946751" Properties=species:S:1:pos:R:3:initial_magmoms:R:1 pbc="T T T"
Si      -1.34433226      -1.34666336      -1.38768896       0.00000000
Si       1.30813588       1.34698590      -1.42211569       0.00000000
Si       1.42711804      -1.36441946       1.29464926       0.00000000
Si      -1.41729517       1.35612459       1.33639897       0.00000000
Si       0.08097759      -2.65620018       2.66392868       0.00000000
Si      -2.68148552      -2.69690889      -0.01835120       0.00000000
Si       2.60244155       2.78306345      -0.10891100       0.00000000
Si      -0.10277361       2.82373958       2.61453507       0.00000000
Si       2.68455944      -0.04678651       2.76379537       0.00000000
Si       2.73202850      -0.01641218      -2.72029515       0.00000000
