10
Lattice="16.290000149 0.0 0.0 0.0 16.290000149 0.0 0.0 0.0 29.1751946751" Properties=species:S:1:pos:R:3:initial_magmoms:R:1 pbc="T T T"
Si       0.97019983      -1.45756405      -1.51054570       0.00000000
Si      -1.69336181       0.92892097      -1.30719460       0.00000000
Si      -1.26822538      -1.47976732       1.32755888       0.00000000
Si       1.50333895       1.28246284       1.29021463       0.00000000
H       -1.15887061       1.18758988      -2.69263707       0.00000000
Si      -0.92304028      -2.96100075      -1.83123944       0.00000000
Si      -2.63679716      -2.50932791      -0.30998644       0.00000000
Si      -2.58439223      -0.05685210       2.62672155       0.00000000
H        0.11885184       2.94316320      -2.26621242       0.00000000
Si       0.15701931       2.63531477       2.63143743       0.00000000
