10
Lattice="16.290000149 0.0 0.0 0.0 16.290000149 0.0 0.0 0.0 29.1751946751" Properties=species:S:1:pos:R:3:initial_magmoms:R:1 pbc="T T T"
Si       1.39131262      -1.35770635      -1.31692744       0.00000000
Si       1.34716672       1.31515687       1.40629106       0.00000000
Si      -1.33608952      -1.40771665       1.32807237       0.00000000
Si      -1.33708321       1.39636252      -1.37290297       0.00000000
Si      -0.02168199      -2.65072511      -2.66249034       0.00000000
Si      -2.68086161      -0.03821634       2.69376323       0.00000000
Si       2.71972955       0.04144176      -2.65777446       0.00000000
Si       2.70435179       2.70784443       0.09914023       0.00000000
Si      -2.69609276       2.71940876       0.01436295       0.00000000
Si      -2.77723326       0.04719213      -2.65272219       0.00000000
