10
Lattice="16.290000149 0.0 0.0 0.0 16.290000149 0.0 0.0 0.0 29.1751946751" Properties=species:S:1:pos:R:3:initial_magmoms:R:1 pbc="T T T"
Si       2.28861470      -0.35212464       0.21318315       0.00000000
Si      -1.58312737      -1.68412375      -0.44390059       0.00000000
Si      -0.78794731       0.62530795       2.17636770       0.00000000
Si      -0.13496265       1.46388457      -1.91622679       0.00000000
H        0.89436988      -2.04404478       1.41441344       0.00000000
H        0.21722715      -1.07368694      -2.75343817       0.00000000
Si      -2.88225489      -0.57293560      -2.00442340       0.00000000
Si       1.24647823      -2.19928034      -2.79133675       0.00000000
Si      -1.36661698       3.31336974      -1.24394278       0.00000000
Si       3.14550455      -1.28948220      -1.73280234       0.00000000
