10
Lattice="16.290000149 0.0 0.0 0.0 16.290000149 0.0 0.0 0.0 29.1751946751" Properties=species:S:1:pos:R:3:initial_magmoms:R:1 pbc="T T T"
Si       1.33745788       1.29873655       1.42781069       0.00000000
Si       1.33532389      -1.43092990      -1.31853791       0.00000000
Si      -1.34229601      -1.41586165       1.35746929       0.00000000
Si      -1.42814431       1.36850662      -1.33043556       0.00000000
H        0.51614865       1.66149857      -3.21136619       0.00000000
Si       2.67977018       2.61967637       0.02617015       0.00000000
Si      -2.76578139       2.52954380       0.22173148       0.00000000
Si      -0.05962140      -2.74861173      -2.68828413       0.00000000
Si      -2.73528650      -0.07073118      -2.70686873       0.00000000
Si       0.00216657       2.64186335       2.82005098       0.00000000
