10
Lattice="16.290000149 0.0 0.0 0.0 16.290000149 0.0 0.0 0.0 29.1751946751" Properties=species:S:1:pos:R:3:initial_magmoms:R:1 pbc="T T T"
Si      -0.71897545      -0.07868070      -1.32490394       0.00000000
H       -2.11380671       0.76115026       0.30514336       0.00000000
H        1.14634360       1.63515763      -1.12129026       0.00000000
H        1.79722685       1.21239955      -1.08000736       0.00000000
Si      -1.51369939       0.85066381       1.70569858       0.00000000
Si       0.26179659      -2.68284899       1.44790656       0.00000000
Si       2.25005627      -2.08002125       0.27372168       0.00000000
Si       0.88980868      -0.86828959      -2.84761570       0.00000000
Si       0.37954071       2.35410050       2.02639232       0.00000000
Si      -1.03922056      -1.18141597       2.76452475       0.00000000
