10
Lattice="16.290000149 0.0 0.0 0.0 16.290000149 0.0 0.0 0.0 29.1751946751" Properties=species:S:1:pos:R:3:initial_magmoms:R:1 pbc="T T T"
Si       1.16823736       0.57057355       1.03895786       0.00000000
Si      -1.30764718      -0.52678602      -0.93086376       0.00000000
Si      -0.07599285      -2.37627119      -1.60314777       0.00000000
Si      -0.37651077       1.83143585       2.24065495       0.00000000
Si       2.83471904       1.36642150      -0.40833602       0.00000000
Si      -3.09795078      -1.10570005       0.51164539       0.00000000
Si       2.30902607      -0.91486270       2.43650774       0.00000000
Si      -2.33347736       0.81246376      -2.54463130       0.00000000
Si      -1.85023451       3.04095207       0.79012262       0.00000000
H       -0.34749828       0.72967798      -3.60494540       0.00000000
