10
Lattice="16.290000149 0.0 0.0 0.0 16.290000149 0.0 0.0 0.0 29.1751946751" Properties=species:S:1:pos:R:3:initial_magmoms:R:1 pbc="T T T"
Si       1.34262181      -1.34397388      -1.37566878       0.00000000
Si      -1.36684504       1.33825609      -1.36186891       0.00000000
Si      -1.35156502      -1.39097053       1.32569167       0.00000000
Si       1.37209042       1.35016408       1.35253285       0.00000000
Si      -2.72935695      -0.04184901       2.64566500       0.00000000
Si      -2.69990462      -0.06256989      -2.70769147       0.00000000
Si       2.69348636      -2.71788878      -0.02663695       0.00000000
Si      -0.01130526       2.70932024      -2.70316931       0.00000000
Si      -2.72127710       2.69485472      -0.00043763       0.00000000
Si       0.02816541       2.71645526       2.70243993       0.00000000
