10
Lattice="16.290000149 0.0 0.0 0.0 16.290000149 0.0 0.0 0.0 29.1751946751" Properties=species:S:1:pos:R:3:initial_magmoms:R:1 pbc="T T T"
H       -0.65088325       0.42275808      -0.04128290       0.00000000
Si       1.98257447       0.62152867       1.08175787       0.00000000
H       -1.79722685      -1.21239955       1.08000736       0.00000000
Si       0.75062692      -0.55467451      -2.50013913       0.00000000
Si       0.20416257       2.17041446       1.71617248       0.00000000
Si      -2.51620229      -1.29108025      -0.24489658       0.00000000
Si      -0.90741817      -2.08068914      -1.76760834       0.00000000
Si       2.61260651       0.28730673      -1.24811483       0.00000000
Si       1.22341159      -1.25097427       2.36368675       0.00000000
Si      -0.73663381       1.24525648      -2.61590630       0.00000000
