10
Lattice="16.290000149 0.0 0.0 0.0 16.290000149 0.0 0.0 0.0 29.1751946751" Properties=species:S:1:pos:R:3:initial_magmoms:R:1 pbc="T T T"
Si       1.57959244      -1.08418096       1.32236570       0.00000000
Si      -1.23067693      -1.13819860      -1.62470824       0.00000000
Si      -1.59871690      -0.07306065       1.79293241       0.00000000
Si       1.29621160       1.59018094      -1.27612302       0.00000000
H        0.93343330      -1.90983962       2.39995151       0.00000000
H       -0.50308407      -2.82152577       1.84687735       0.00000000
Si      -1.71344738       2.23270090       2.02656737       0.00000000
Si      -2.64544715      -2.46407429      -0.38557937       0.00000000
Si       2.81605233      -2.45166131      -0.09560711       0.00000000
Si       0.13018968      -2.50927904      -2.88656459       0.00000000
