10
Lattice="16.290000149 0.0 0.0 0.0 16.290000149 0.0 0.0 0.0 29.1751946751" Properties=species:S:1:pos:R:3:initial_magmoms:R:1 pbc="T T T"
Si      -1.34819299      -1.34742736       1.37397662       0.00000000
Si       1.35427242      -1.36498798      -1.35241615       0.00000000
Si       1.36184401       1.35464383       1.35609222       0.00000000
Si      -1.36682875       1.36273996      -1.34576420       0.00000000
Si      -2.70342326      -2.68545539       0.00565999       0.00000000
Si      -2.70212006       2.70586676       0.04647609       0.00000000
Si       2.71425611       2.70231554      -0.01091152       0.00000000
Si       2.71220357      -0.00692325       2.71332228       0.00000000
Si      -0.02451645       2.68367978      -2.74740474       0.00000000
Si       2.72174951      -2.71836119       0.00685617       0.00000000
