10
Lattice="16.290000149 0.0 0.0 0.0 16.290000149 0.0 0.0 0.0 29.1751946751" Properties=species:S:1:pos:R:3:initial_magmoms:R:1 pbc="T T T"
H        1.08572851      -1.69499081      -0.81710384       0.00000000
Si       1.93316690       0.74696167       1.14543857       0.00000000
Si      -1.74912248       1.55385424       0.41326955       0.00000000
Si      -0.24247665       0.53602245      -2.30398846       0.00000000
Si      -0.85856446      -1.98798275       1.06382679       0.00000000
H        1.83980891       2.46926266      -0.80718428       0.00000000
Si       0.69206437       2.05203145       2.64155422       0.00000000
Si      -2.19620153      -0.82694557       2.61599383       0.00000000
Si       1.96462289      -2.44726301      -1.80421738       0.00000000
Si      -2.14338935      -0.76084075      -2.94852686       0.00000000
