10
Lattice="16.290000149 0.0 0.0 0.0 16.290000149 0.0 0.0 0.0 29.1751946751" Properties=species:S:1:pos:R:3:initial_magmoms:R:1 pbc="T T T"
H       -1.43352001       0.34447795      -0.45770045       0.00000000
Si       1.24111068      -1.54077191      -1.31947735       0.00000000
Si       1.39132077       1.29775573       1.43862593       0.00000000
Si      -1.34016202      -1.37782304       1.49492239       0.00000000
Si      -0.03927519       2.03639809      -1.65893074       0.00000000
Si       2.60006321      -0.10686093      -2.62985205       0.00000000
Si       2.61842204      -2.75755347       0.15992412       0.00000000
Si      -2.32788989       2.38852274      -1.87211389       0.00000000
Si       0.01573614       2.59048616       2.83987552       0.00000000
Si       0.81761466       1.09904054      -3.60491623       0.00000000
