10
Lattice="16.290000149 0.0 0.0 0.0 16.290000149 0.0 0.0 0.0 29.1751946751" Properties=species:S:1:pos:R:3:initial_magmoms:R:1 pbc="T T T"
Si       1.36894645      -1.35584929       1.34086277       0.00000000
Si       1.39810229       1.33452568      -1.33549454       0.00000000
Si      -1.35143470       1.36098064       1.35877634       0.00000000
Si      -1.36218610      -1.35182566      -1.35877634       0.00000000
Si       0.07726347       2.76939288      -2.60907931       0.00000000
Si       2.70177797      -2.70304859      -0.04916020       0.00000000
Si       0.02120958      -2.71098182       2.69692582       0.00000000
Si      -2.71153568      -0.00335574       2.69969746       0.00000000
Si       2.68463438       0.01057221       2.73333646       0.00000000
Si      -2.71376741       2.71294151       0.00749803       0.00000000
