10
Lattice="16.290000149 0.0 0.0 0.0 16.290000149 0.0 0.0 0.0 29.1751946751" Properties=species:S:1:pos:R:3:initial_magmoms:R:1 pbc="T T T"
Si       0.87889438      -0.75227221      -0.98711354       0.00000000
Si      -1.08572851       1.69499081       0.81710384       0.00000000
Si      -1.94429297      -0.29299194       1.88093064       0.00000000
Si      -1.32820516       2.23101326      -1.48688462       0.00000000
Si       2.28164242      -1.91573660       0.47718948       0.00000000
Si      -0.71640163      -1.87018976      -2.32482539       0.00000000
Si       2.01339515       0.87496849      -2.19913865       0.00000000
Si       0.84743839       2.44195247       1.96254241       0.00000000
Si      -0.51614865      -1.66149857       3.21136619       0.00000000
Si       0.81917524      -3.09242847       1.89282828       0.00000000
