10
Lattice="16.290000149 0.0 0.0 0.0 16.290000149 0.0 0.0 0.0 29.1751946751" Properties=species:S:1:pos:R:3:initial_magmoms:R:1 pbc="T T T"
Si      -1.74773783      -0.32265929       1.49108585       0.00000000
Si       0.11473047      -2.30576156      -0.23363496       0.00000000
Si      -0.98479567       0.85892447      -1.98694746       0.00000000
Si       1.83337436       1.18687964       1.00817803       0.00000000
H       -0.41907654       2.66617455       1.50056779       0.00000000
Si      -2.50426172       2.17760487      -0.79035602       0.00000000
Si       1.71344738      -2.23270090      -2.02656737       0.00000000
Si      -1.06433974       3.50696662       0.42091053       0.00000000
Si       0.40456215      -3.18876101       2.00850793       0.00000000
Si      -3.66528261       0.73592356       0.71056187       0.00000000
