10
Lattice="10.86 0.0 0.0 0.0 10.86 0.0 0.0 0.0 10.86" Properties=species:S:1:pos:R:3:initial_magmoms:R:1 pbc="T T T"
Si       1.31465730       1.07049192       1.63276842       0.00000000
Si       1.31465730      -1.64450808      -1.08223158       0.00000000
Si      -1.40034270      -1.64450808       1.63276842       0.00000000
Si       0.04059468       2.30440512      -2.31782808       0.00000000
Si      -2.67126678       2.03505540      -0.30525288       0.00000000
Si      -2.69977428      -0.29682552      -2.32811250       0.00000000
Si       2.67215730       2.42799192       0.27526842       0.00000000
Si       2.67215730      -0.28700808      -2.43973158       0.00000000
Si      -0.04284270      -3.00200808      -2.43973158       0.00000000
Si       0.14459004       2.25671886       3.21169296       0.00000000
