10
Lattice="10.86 0.0 0.0 0.0 10.86 0.0 0.0 0.0 10.86" Properties=species:S:1:pos:R:3:initial_magmoms:R:1 pbc="T T T"
Si      -1.35750000      -1.35750000       1.35750000       0.00000000
Si      -1.35750000       1.35750000      -1.35750000       0.00000000
Si       1.35750000       1.35750000       1.35750000       0.00000000
Si       1.35750000      -1.35750000      -1.35750000       0.00000000
Si      -2.67215730      -2.42799192      -0.27526842       0.00000000
Si      -2.63156262      -0.12358680      -2.59309650       0.00000000
Si       2.44889742      -0.02943060      -2.80108722       0.00000000
Si       2.80830912      -0.23305560       2.44753992       0.00000000
Si      -2.72280834       2.70549750       0.04662198       0.00000000
Si       0.00000000      -2.71500000       2.71500000       0.00000000
