10
Lattice="10.86 0.0 0.0 0.0 10.86 0.0 0.0 0.0 10.86" Properties=species:S:1:pos:R:3:initial_magmoms:R:1 pbc="T T T"
Si      -1.41556842      -1.34768256       1.24588092       0.00000000
Si       1.29943158      -1.34768256      -1.46911908       0.00000000
Si      -1.41556842       1.36731744      -1.46911908       0.00000000
Si       0.02850750       2.33188092       2.02285962       0.00000000
Si       2.69977428       0.29682552       2.32811250       0.00000000
Si      -0.05806842      -2.70518256       2.60338092       0.00000000
Si       2.74036896       2.60123064       0.01028442       0.00000000
Si       2.65693158      -2.70518256      -0.11161908       0.00000000
Si      -2.77306842      -2.70518256      -0.11161908       0.00000000
Si       2.65693158       0.00981744      -2.82661908       0.00000000
