10
Lattice="10.86 0.0 0.0 0.0 10.86 0.0 0.0 0.0 10.86" Properties=species:S:1:pos:R:3:initial_magmoms:R:1 pbc="T T T"
Si       1.55970234       1.11406224       0.96375984       0.00000000
Si      -1.15529766      -1.60093776       0.96375984       0.00000000
Si      -1.15529766       1.11406224      -1.75124016       0.00000000
Si       1.60949544      -0.91549800      -1.60290342       0.00000000
Si       0.20220234       2.47156224       2.32125984       0.00000000
Si      -2.51279766      -0.24343776       2.32125984       0.00000000
Si      -2.51279766       2.47156224      -0.39374016       0.00000000
Si       2.91720234      -0.24343776       2.32125984       0.00000000
Si       1.26634116       0.75595374      -3.44993964       0.00000000
Si       0.20220234      -2.95843776       2.32125984       0.00000000
