10
Lattice="10.86 0.0 0.0 0.0 10.86 0.0 0.0 0.0 10.86" Properties=species:S:1:pos:R:3:initial_magmoms:R:1 pbc="T T T"
Si      -1.22646324      -1.35106002       1.41271224       0.00000000
Si      -1.31874066       1.41332040      -1.37102070       0.00000000
Si       1.48853676      -1.35106002      -1.30228776       0.00000000
Si       1.48853676       1.36393998       1.41271224       0.00000000
Si      -2.58396324      -2.70856002       0.05521224       0.00000000
Si      -2.58396324       0.00643998       2.77021224       0.00000000
Si       0.13103676      -2.70856002      -2.65978776       0.00000000
Si      -2.60300082       2.79226890       0.14675118       0.00000000
Si      -0.04689348       2.60486874      -2.82214476       0.00000000
Si       2.63390838       2.83492698      -0.04289700       0.00000000
