10
Lattice="10.86 0.0 0.0 0.0 10.86 0.0 0.0 0.0 10.86" Properties=species:S:1:pos:R:3:initial_magmoms:R:1 pbc="T T T"
Si       1.37653758       1.28667108       1.26596106       0.00000000
Si      -1.33846242      -1.42832892       1.26596106       0.00000000
Si      -1.33846242       1.28667108      -1.44903894       0.00000000
Si       1.28426016      -1.37894850      -1.51777188       0.00000000
Si       0.01903758       2.64417108       2.62346106       0.00000000
Si       2.60169762       2.68206162      -0.08365458       0.00000000
Si      -2.69596242      -0.07082892       2.62346106       0.00000000
Si      -2.69596242       2.64417108      -0.09153894       0.00000000
Si       2.73403758      -0.07082892       2.62346106       0.00000000
Si       2.60300082      -2.79226890      -0.14675118       0.00000000
