10
Lattice="10.86 0.0 0.0 0.0 10.86 0.0 0.0 0.0 10.86" Properties=species:S:1:pos:R:3:initial_magmoms:R:1 pbc="T T T"
Si       1.45122180      -1.18299066       1.42741668       0.00000000
Si       1.22381340       1.72011540      -1.06037040       0.00000000
Si      -1.38858132       1.49048070       1.44063330       0.00000000
Si      -2.58865476      -2.55152442       0.08731440       0.00000000
Si       0.12634524      -2.55152442      -2.62768560       0.00000000
Si      -2.58865476       0.16347558      -2.62768560       0.00000000
Si       0.12634524      -2.55152442       2.80231440       0.00000000
Si      -2.58865476       0.16347558       2.80231440       0.00000000
Si       2.84134524      -2.55152442       0.08731440       0.00000000
Si      -2.58865476       2.87847558       0.08731440       0.00000000
