10
Lattice="10.86 0.0 0.0 0.0 10.86 0.0 0.0 0.0 10.86" Properties=species:S:1:pos:R:3:initial_magmoms:R:1 pbc="T T T"
Si       1.35750000      -1.35750000      -1.35750000       0.00000000
Si      -1.35750000      -1.35750000       1.35750000       0.00000000
Si       1.35750000       1.35750000       1.35750000       0.00000000
Si      -1.35750000       1.35750000      -1.35750000       0.00000000
Si      -2.66231814       0.07264254      -2.59812468       0.00000000
Si      -2.64850422       2.67523068      -0.00882918       0.00000000
Si       2.60733396      -0.04646994      -2.76687822       0.00000000
Si       2.58496236       2.77970388       0.22186980       0.00000000
Si       0.00000000       2.71500000      -2.71500000       0.00000000
Si      -2.71500000      -2.71500000       0.00000000       0.00000000
