10
Lattice="10.86 0.0 0.0 0.0 10.86 0.0 0.0 0.0 10.86" Properties=species:S:1:pos:R:3:initial_magmoms:R:1 pbc="T T T"
Si       1.39766028       1.30775034      -1.29054810       0.00000000
Si      -1.33832124      -1.41670872      -1.29815010       0.00000000
Si      -1.42802484       1.32174888       1.45234038       0.00000000
Si      -0.17562792      -2.51783670       2.67192924       0.00000000
Si      -2.63808948      -0.06885240       2.63520072       0.00000000
Si       0.07691052       2.64614760       2.63520072       0.00000000
Si      -2.63808948       2.64614760      -0.07979928       0.00000000
Si      -2.63808948      -2.78385240      -0.07979928       0.00000000
Si      -2.63808948      -0.06885240      -2.79479928       0.00000000
Si       2.79191052       2.64614760      -0.07979928       0.00000000
