10
Lattice="10.86 0.0 0.0 0.0 10.86 0.0 0.0 0.0 10.86" Properties=species:S:1:pos:R:3:initial_magmoms:R:1 pbc="T T T"
Si      -1.09615410      -1.39350090       1.50375162       0.00000000
Si       1.61884590      -1.39350090      -1.21124838       0.00000000
Si       1.61884590       1.32149910       1.50375162       0.00000000
Si      -1.27886274       2.01911292      -1.07078514       0.00000000
Si      -2.09285232       0.14523078      -2.58663480       0.00000000
Si      -2.45365410      -2.75100090       0.14625162       0.00000000
Si      -2.45365410      -0.03600090       2.86125162       0.00000000
Si       0.26134590      -2.75100090      -2.56874838       0.00000000
Si      -2.59514904       2.87208990       0.47837214       0.00000000
Si       0.26134590       2.67899910       2.86125162       0.00000000
