10
Lattice="10.86 0.0 0.0 0.0 10.86 0.0 0.0 0.0 10.86" Properties=species:S:1:pos:R:3:initial_magmoms:R:1 pbc="T T T"
Si      -1.17176142      -1.37878560       1.24595694       0.00000000
Si      -1.17176142       1.33621440      -1.46904306       0.00000000
Si       1.54323858      -1.37878560      -1.46904306       0.00000000
Si       1.33578000       0.93603426       2.21849166       0.00000000
Si      -2.52926142      -0.02128560       2.60345694       0.00000000
Si       0.54654036      -2.55505392       2.58557052       0.00000000
Si      -2.52926142       2.69371440      -0.11154306       0.00000000
Si      -2.52926142      -2.73628560      -0.11154306       0.00000000
Si       2.66411004       2.62417782       0.28958190       0.00000000
Si      -2.52926142      -0.02128560      -2.82654306       0.00000000
