10
Lattice="10.86 0.0 0.0 0.0 10.86 0.0 0.0 0.0 10.86" Properties=species:S:1:pos:R:3:initial_magmoms:R:1 pbc="T T T"
Si      -1.21329006       1.32506118      -1.29205764       0.00000000
Si      -1.21329006      -1.38993882       1.42294236       0.00000000
Si       1.50170994      -1.38993882      -1.29205764       0.00000000
Si       1.36774098       1.33912488       1.51605600       0.00000000
Si      -2.57079006      -0.03243882      -2.64955764       0.00000000
Si       0.22051230       2.75305344      -2.45059158       0.00000000
Si      -2.57079006       2.68256118       0.06544236       0.00000000
Si      -2.57079006      -2.74743882       0.06544236       0.00000000
Si      -2.57079006      -0.03243882       2.78044236       0.00000000
Si       2.69600586      -0.14305878       2.67347136       0.00000000
