10
Lattice="10.86 0.0 0.0 0.0 10.86 0.0 0.0 0.0 10.86" Properties=species:S:1:pos:R:3:initial_magmoms:R:1 pbc="T T T"
Si       1.32826488      -1.48218366       1.15741536       0.00000000
Si      -1.02335952       1.40098344       1.52967444       0.00000000
Si      -1.36774098      -1.33912488      -1.51605600       0.00000000
Si      -2.58103104      -0.01406370       2.62188636       0.00000000
Si       0.44880036       2.79791610      -2.35449144       0.00000000
Si      -2.58103104       2.70093630      -0.09311364       0.00000000
Si      -2.58103104      -2.72906370      -0.09311364       0.00000000
Si       0.13396896       2.70093630       2.62188636       0.00000000
Si       0.13396896      -2.72906370       2.62188636       0.00000000
Si      -2.58103104      -0.01406370      -2.80811364       0.00000000
