10
Lattice="10.86 0.0 0.0 0.0 10.86 0.0 0.0 0.0 10.86" Properties=species:S:1:pos:R:3:initial_magmoms:R:1 pbc="T T T"
Si       1.24854162       1.32070632       1.33267404       0.00000000
Si       1.24854162      -1.39429368      -1.38232596       0.00000000
Si      -1.46645838      -1.39429368       1.33267404       0.00000000
Si      -0.16373622      -2.67351480      -2.54670258       0.00000000
Si       2.60604162       2.67820632      -0.02482596       0.00000000
Si       2.60604162      -0.03679368       2.69017404       0.00000000
Si       2.60604162      -0.03679368      -2.73982596       0.00000000
Si       2.60604162      -2.75179368      -0.02482596       0.00000000
Si      -0.10895838       2.67820632       2.69017404       0.00000000
Si      -0.10895838      -2.75179368       2.69017404       0.00000000
