10
Lattice="10.86 0.0 0.0 0.0 10.86 0.0 0.0 0.0 10.86" Properties=species:S:1:pos:R:3:initial_magmoms:R:1 pbc="T T T"
Si       1.05028146       1.02026442       1.53284556       0.00000000
Si      -1.66471854       1.02026442      -1.18215444       0.00000000
Si       1.05028146      -1.69473558      -1.18215444       0.00000000
Si       2.40778146       2.37776442       0.17534556       0.00000000
Si      -0.30721854       2.37776442      -2.53965444       0.00000000
Si       2.40778146      -0.33723558      -2.53965444       0.00000000
Si      -0.30721854       2.37776442       2.89034556       0.00000000
Si      -2.96655018      -0.46902168      -2.26435344       0.00000000
Si       2.40778146      -0.33723558       2.89034556       0.00000000
Si      -3.02221854       2.37776442       0.17534556       0.00000000
