10
Lattice="16.28999089631971 0.0 0.0 0.0 16.28999089631971 0.0 0.0 0.0 34.56954931742767" Properties=species:S:1:pos:R:3:initial_magmoms:R:1 pbc="T T T"
Si       2.01178242      -1.22217843       0.17837897       0.00000000
Si       0.79754211       1.58718357      -1.56835219       0.00000000
Si      -0.41700771       1.10001483       2.07306789       0.00000000
Si      -1.95302439      -1.23594022      -0.60292785       0.00000000
Si      -1.29109653       2.68596036      -2.03358944       0.00000000
Si       2.57364081      -1.68060721      -2.02114440       0.00000000
Si       3.73925547       0.33285357       0.49724868       0.00000000
Si      -2.24836209      -2.83389704       1.18418057       0.00000000
Si       1.34661285       0.38750652       3.55596411       0.00000000
Si       2.34323505       0.47755764      -3.14047246       0.00000000
