10
Lattice="16.28999089631971 0.0 0.0 0.0 16.28999089631971 0.0 0.0 0.0 34.56954931742767" Properties=species:S:1:pos:R:3:initial_magmoms:R:1 pbc="T T T"
Si       0.46786509       2.30477436       0.19860217       0.00000000
Si      -2.24125965       0.10024866       0.79990525       0.00000000
Si       0.41700771      -1.10001483      -2.07306789       0.00000000
Si       1.76362056      -0.71250831       1.48289622       0.00000000
Si       0.22159287       2.29662936       2.55538251       0.00000000
Si       2.70692559       2.37218238      -0.38731745       0.00000000
Si      -1.97921871       1.55830140       2.70645153       0.00000000
Si       3.65850594       0.34955082       0.40591587       0.00000000
Si       2.42879013      -2.32219326      -1.89468892       0.00000000
Si       1.67501925      -3.10440878       1.57678716       0.00000000
