10
Lattice="16.28999089631971 0.0 0.0 0.0 16.28999089631971 0.0 0.0 0.0 34.56954931742767" Properties=species:S:1:pos:R:3:initial_magmoms:R:1 pbc="T T T"
Si      -1.35760860      -1.35648459      -1.35754696       0.00000000
Si       1.35738054       1.35878148      -1.35699385       0.00000000
Si       1.35840681      -1.35562122       1.35962113       0.00000000
Si      -1.35907470       1.36340784       1.36065822       0.00000000
Si       2.71480995      -2.71312719      -0.00055311       0.00000000
Si      -2.71498914      -2.71353607      -0.00062225       0.00000000
Si      -0.00003258      -2.71402640      -2.71471366       0.00000000
Si       2.71521720       0.00128691      -2.71447167       0.00000000
Si      -2.71492398       0.00099369      -2.71492107       0.00000000
Si       0.00004887       2.71599912      -2.71516306       0.00000000
