10
Lattice="16.28999089631971 0.0 0.0 0.0 16.28999089631971 0.0 0.0 0.0 34.56954931742767" Properties=species:S:1:pos:R:3:initial_magmoms:R:1 pbc="T T T"
Si      -2.23142049      -0.34490817       0.70449324       0.00000000
Si       1.22787504      -1.71066177       1.09886288       0.00000000
Si       0.89505405       2.01577347       0.95882156       0.00000000
Si       0.30302658      -0.22957497      -2.38720156       0.00000000
Si      -2.75747346      -2.61560385       0.08390034       0.00000000
Si      -3.63892536       1.24222653      -0.36647200       0.00000000
Si       3.22344891       2.10225708       0.35565172       0.00000000
Si      -2.27242242      -0.36647613       3.10576462       0.00000000
Si       3.46693554      -1.64325375       0.51294326       0.00000000
Si      -1.13871987       1.30145697      -3.49767982       0.00000000
