10
Lattice="16.28999089631971 0.0 0.0 0.0 16.28999089631971 0.0 0.0 0.0 34.56954931742767" Properties=species:S:1:pos:R:3:initial_magmoms:R:1 pbc="T T T"
Si       1.35749457       1.35710361      -1.35709756       0.00000000
Si      -1.35728280       1.35716877       1.35758153       0.00000000
Si      -1.35770634      -1.35780408      -1.35744325       0.00000000
Si       1.35759231      -1.35819504       1.35730497       0.00000000
Si      -0.00024435       2.71388142       2.71516306       0.00000000
Si      -2.71462913       2.71476108      -0.00027656       0.00000000
Si      -2.71520905      -0.00242721       2.71419511       0.00000000
Si       2.71467963       2.71472850      -0.00020742       0.00000000
Si      -0.00174303      -2.71604799       2.71371114       0.00000000
Si       2.71516833      -0.00127062       2.71460995       0.00000000
