10
Lattice="16.28999089631971 0.0 0.0 0.0 16.28999089631971 0.0 0.0 0.0 34.56954931742767" Properties=species:S:1:pos:R:3:initial_magmoms:R:1 pbc="T T T"
Si      -1.19254203      -1.36681245      -1.41794000       0.00000000
Si       1.77810237      -1.43992197      -0.46420017       0.00000000
Si       0.12541671       2.13866523      -0.93479571       0.00000000
Si       0.14367780      -0.02347389       2.42163285       0.00000000
Si      -1.63214397       1.36655181      -2.23253731       0.00000000
Si       0.43579008       3.16840500       1.22172313       0.00000000
Si      -1.57954356      -3.10950036       0.20714086       0.00000000
Si       0.77160843      -3.38713083       0.38271969       0.00000000
Si       2.43372600       2.54599668      -1.17958282       0.00000000
Si      -2.12605677      -0.34155243       3.12782000       0.00000000
