10
Lattice="16.28999089631971 0.0 0.0 0.0 16.28999089631971 0.0 0.0 0.0 34.56954931742767" Properties=species:S:1:pos:R:3:initial_magmoms:R:1 pbc="T T T"
Si      -1.29428937      -1.46763126       1.43121471       0.00000000
Si      -0.55682478       0.03227049      -2.36189664       0.00000000
Si       2.24728695      -0.92173707       0.04248600       0.00000000
Si       0.34889922       2.25028431       1.19316866       0.00000000
Si       2.52740979      -1.27055484      -2.22140591       0.00000000
Si       1.57017681       0.59385195      -3.26478463       0.00000000
Si       2.82183525       2.42308863       0.89915448       0.00000000
Si      -3.04289055      -2.31581898      -0.21955133       0.00000000
Si      -2.29770450       1.59262443      -2.62020045       0.00000000
Si      -2.29843755      -0.14656113       3.19364046       0.00000000
