10
Lattice="16.28999089631971 0.0 0.0 0.0 16.28999089631971 0.0 0.0 0.0 34.56954931742767" Properties=species:S:1:pos:R:3:initial_magmoms:R:1 pbc="T T T"
Si      -0.40311234      -2.31683873      -0.45808135       0.00000000
Si      -0.44145900       0.31224672       2.34032523       0.00000000
Si      -1.33879365       1.60862121      -1.22528379       0.00000000
Si       2.20193559       0.49835997      -0.94997175       0.00000000
Si      -0.54592677       1.14328107      -3.45574693       0.00000000
Si       2.61904104       2.69827560      -0.13077668       0.00000000
Si       1.54000773      -3.42354061       0.48068985       0.00000000
Si       1.80522522       0.86565060      -3.28016809       0.00000000
Si      -2.77926948      -0.22454136       2.75543661       0.00000000
Si       0.08459397       2.58294240       2.96091812       0.00000000
