10
Lattice="16.28999089631971 0.0 0.0 0.0 16.28999089631971 0.0 0.0 0.0 34.56954931742767" Properties=species:S:1:pos:R:3:initial_magmoms:R:1 pbc="T T T"
Si      -1.35413883       1.35749457       1.35944829       0.00000000
Si      -1.35703845      -1.35671265      -1.35758153       0.00000000
Si       1.35795069       1.35827649      -1.35768524       0.00000000
Si       1.36091547      -1.35829278       1.35834206       0.00000000
Si       0.00024435      -2.71388142      -2.71516306       0.00000000
Si      -2.71438478       0.00087966      -2.71543962       0.00000000
Si       2.71492398       0.00084708      -2.71537048       0.00000000
Si      -2.71388305       2.71643895      -0.00072596       0.00000000
Si       2.71541268      -2.71515204      -0.00055311       0.00000000
Si       0.00043983       2.71552671      -2.71526677       0.00000000
