10
Lattice="16.28999089631971 0.0 0.0 0.0 16.28999089631971 0.0 0.0 0.0 34.56954931742767" Properties=species:S:1:pos:R:3:initial_magmoms:R:1 pbc="T T T"
Si      -2.08498546       1.04528695      -0.17312440       0.00000000
Si      -0.34864672      -0.92449564       2.17643090       0.00000000
Si       0.03711676      -1.80330856      -1.58480730       0.00000000
Si       1.95738522       1.36884056      -0.54868819       0.00000000
Si       1.76037396       0.88593165      -2.93025492       0.00000000
Si      -1.89385489       2.57686786      -1.89109368       0.00000000
Si       1.02558093      -3.56943778      -0.43329497       0.00000000
Si       2.25534561      -1.41976051      -2.68567522       0.00000000
Si      -3.79711333      -0.58124905       0.26127680       0.00000000
Si      -2.34042895       2.76221548       1.39056090       0.00000000
