10
Lattice="16.28999089631971 0.0 0.0 0.0 16.28999089631971 0.0 0.0 0.0 34.56954931742767" Properties=species:S:1:pos:R:3:initial_magmoms:R:1 pbc="T T T"
Si       1.27246077      -1.40673924      -1.39512408       0.00000000
Si      -1.46513889       1.30212486      -1.39073375       0.00000000
Si      -1.01398734      -1.86391809       1.15493472       0.00000000
Si       1.55198088       1.34737848       1.62998973       0.00000000
Si      -2.56515372      -0.66828096       2.57888982       0.00000000
Si       2.65373874       2.68766203       0.02627287       0.00000000
Si       2.66204664      -2.69364924       0.10170367       0.00000000
Si       2.61211779      -0.06191829      -2.76936814       0.00000000
Si      -0.06366132       2.31388047       3.03327223       0.00000000
Si      -0.10513566       2.65927993      -2.76629145       0.00000000
