10
Lattice="16.28999089631971 0.0 0.0 0.0 16.28999089631971 0.0 0.0 0.0 34.56954931742767" Properties=species:S:1:pos:R:3:initial_magmoms:R:1 pbc="T T T"
Si      -1.79328465       0.95042362       1.13872159       0.00000000
Si       0.96560604      -1.85077206       1.08140525       0.00000000
Si      -1.13047713       0.45460503      -2.03006335       0.00000000
Si       1.03371453       1.16365076      -2.29362174       0.00000000
Si      -0.36851238       2.17630720       2.54122078       0.00000000
Si       0.42345855       3.20100848      -0.97935588       0.00000000
Si       2.33153883      -0.41840865       2.53312459       0.00000000
Si       1.33450938       3.15524987       1.22061642       0.00000000
Si      -1.55108493      -1.60959861      -2.95846368       0.00000000
Si       3.14364420       1.49859108       1.32046180       0.00000000
