10
Lattice="16.28999089631971 0.0 0.0 0.0 16.28999089631971 0.0 0.0 0.0 34.56954931742767" Properties=species:S:1:pos:R:3:initial_magmoms:R:1 pbc="T T T"
Si       1.33674111       1.34969166       1.37127799       0.00000000
Si      -1.30917843       1.35961227      -1.42932376       0.00000000
Si      -1.37459907      -1.36544898       1.36827044       0.00000000
Si       1.43106021      -1.23681173      -1.48706876       0.00000000
Si      -0.56967759      -2.05532396      -2.58251997       0.00000000
Si      -2.37881241      -0.39866517      -2.68236535       0.00000000
Si       2.71010214       2.71200807      -0.00550348       0.00000000
Si       2.69798238      -0.00661374       2.72899780       0.00000000
Si       2.70189198      -2.72522645      -0.02859595       0.00000000
Si      -2.73647565       2.69871543      -0.01641709       0.00000000
