10
Lattice="16.28999089631971 0.0 0.0 0.0 16.28999089631971 0.0 0.0 0.0 34.56954931742767" Properties=species:S:1:pos:R:3:initial_magmoms:R:1 pbc="T T T"
Si      -2.06246061       0.31285759       1.34835146       0.00000000
Si       1.55176911       1.93031939      -0.40197494       0.00000000
Si       0.55522836      -2.00478165      -1.40808767       0.00000000
Si       1.83272274      -0.18417800       1.73725910       0.00000000
Si      -2.09060973       0.66022067      -1.70134132       0.00000000
Si       0.52362576      -3.26451993       0.73961592       0.00000000
Si      -0.56189097       1.73198864      -3.03489700       0.00000000
Si      -2.88253179       2.13329279       0.00884981       0.00000000
Si       3.31957620       0.64565741      -1.54242501       0.00000000
Si       2.20434651      -0.95693227      -2.92147425       0.00000000
