10
Lattice="16.28999089631971 0.0 0.0 0.0 16.28999089631971 0.0 0.0 0.0 34.56954931742767" Properties=species:S:1:pos:R:3:initial_magmoms:R:1 pbc="T T T"
Si      -0.56185839       0.45842878       2.19952337       0.00000000
Si       2.14063632      -1.11388432       0.01420809       0.00000000
Si      -0.23040576       2.15816485      -1.11932806       0.00000000
Si      -1.76674824      -1.69967272      -0.05085184       0.00000000
Si       1.16561466       2.01346078       2.51839308       0.00000000
Si      -1.45705905      -2.36981074      -2.26444502       0.00000000
Si      -0.19473066       1.30706611      -3.41322636       0.00000000
Si      -2.57364081       1.68060721       2.02114440       0.00000000
Si       1.49837049      -3.28270234       0.81089837       0.00000000
Si      -1.77609870       3.26779078       0.45279221       0.00000000
