10
Lattice="16.28999089631971 0.0 0.0 0.0 16.28999089631971 0.0 0.0 0.0 34.56954931742767" Properties=species:S:1:pos:R:3:initial_magmoms:R:1 pbc="T T T"
Si      -1.35698958       1.35498591      -1.35931001       0.00000000
Si       1.35780408      -1.35780408      -1.36024339       0.00000000
Si       1.34680833       1.34996859       1.38008632       0.00000000
Si      -1.35669636      -1.35812988       1.37856526       0.00000000
Si      -2.71148679       2.71184517      -0.00041483       0.00000000
Si      -2.71604799      -2.71176372       0.00127907       0.00000000
Si       2.71314837       2.71513575       0.00359524       0.00000000
Si       2.71355562      -2.71495656       0.00221245       0.00000000
Si       0.00087966       2.71339272      -2.71640756       0.00000000
Si      -2.71456560      -0.00193851      -2.71661498       0.00000000
