10
Lattice="16.28999089631971 0.0 0.0 0.0 16.28999089631971 0.0 0.0 0.0 34.56954931742767" Properties=species:S:1:pos:R:3:initial_magmoms:R:1 pbc="T T T"
Si       1.41923367       1.32799338       1.38261823       0.00000000
Si      -1.29624417      -1.51032735       1.32708914       0.00000000
Si       1.60371792      -1.18094355      -1.43311604       0.00000000
Si      -2.09409579       1.80077805      -0.30082439       0.00000000
Si      -0.02295261       2.56176540       2.76333718       0.00000000
Si       2.06412219       3.17847222      -0.24295493       0.00000000
Si      -3.18230037      -0.09871740      -2.13757471       0.00000000
Si      -2.72354139      -0.17122419       2.73999580       0.00000000
Si       2.72303640      -0.15793155       2.75090942       0.00000000
Si       0.38905407      -2.81136078      -2.71184438       0.00000000
