10
Lattice="16.28999089631971 0.0 0.0 0.0 16.28999089631971 0.0 0.0 0.0 34.56954931742767" Properties=species:S:1:pos:R:3:initial_magmoms:R:1 pbc="T T T"
Si       0.18958302       1.05143805      -2.13048795       0.00000000
Si      -1.43000136      -1.84168224       0.67949944       0.00000000
Si      -1.28034513       1.70496027       1.17975567       0.00000000
Si       2.12610564       0.15589530       1.51656698       0.00000000
Si       0.91688265       2.14550703       1.87494969       0.00000000
Si       0.18731871      -2.97036747       1.99563206       0.00000000
Si      -0.81042750      -0.66249801      -3.46649806       0.00000000
Si       1.23891966      -1.23509151       3.27833590       0.00000000
Si      -2.47813254      -1.82731446      -2.16529950       0.00000000
Si      -1.52573769      -3.55424994      -0.93901319       0.00000000
