10
Lattice="16.28999089631971 0.0 0.0 0.0 16.28999089631971 0.0 0.0 0.0 34.56954931742767" Properties=species:S:1:pos:R:3:initial_magmoms:R:1 pbc="T T T"
Si      -1.38958587       1.28691000      -1.49682775       0.00000000
Si      -1.86285924      -0.77530626       1.37915294       0.00000000
Si       1.29642336      -1.44265869      -1.48860020       0.00000000
Si       1.88507880       0.85076154       1.34002019       0.00000000
Si      -2.66204664       2.69364924      -0.10170367       0.00000000
Si       2.55415797      -2.87383293      -0.04162176       0.00000000
Si       2.76815970       2.72388348      -0.01648968       0.00000000
Si      -0.04992885       2.63173095      -2.87107181       0.00000000
Si       2.66276340      -0.07749153      -2.86509128       0.00000000
Si      -3.67603398       0.82973115       1.05323105       0.00000000
