10
Lattice="16.28999089631971 0.0 0.0 0.0 16.28999089631971 0.0 0.0 0.0 34.56954931742767" Properties=species:S:1:pos:R:3:initial_magmoms:R:1 pbc="T T T"
Si      -1.88507880      -0.85076154      -1.34002019       0.00000000
Si       0.88308090       1.87312194      -1.35650987       0.00000000
Si       1.66908969      -2.01065841      -0.04563183       0.00000000
Si      -0.10803528       0.90754848       2.47946774       0.00000000
Si       0.19916154      -1.35713619       3.26461178       0.00000000
Si       2.14941663       0.43078905      -2.83097111       0.00000000
Si      -0.58865544      -2.29342023      -2.82862038       0.00000000
Si       1.87457175       2.27545236       2.31792415       0.00000000
Si       3.41086536      -1.07427663      -1.37728618       0.00000000
Si       1.47950667      -3.06209646       2.08485611       0.00000000
