10
Lattice="16.28999089631971 0.0 0.0 0.0 16.28999089631971 0.0 0.0 0.0 34.56954931742767" Properties=species:S:1:pos:R:3:initial_magmoms:R:1 pbc="T T T"
Si       1.19236284      -0.04777857       2.05571397       0.00000000
Si      -2.32533234      -0.22996593       0.59190015       0.00000000
Si       0.60575994       2.24520183      -0.73847513       0.00000000
Si       1.08538641      -1.55686788      -1.59704493       0.00000000
Si       3.29198094      -0.64922166       1.19624535       0.00000000
Si       0.76334940       1.82373066      -3.00043114       0.00000000
Si       2.74978458      -2.55987576      -0.17270956       0.00000000
Si       0.83588877       1.98229752       3.23878832       0.00000000
Si       1.97257239      -0.16588107      -3.35881386       0.00000000
Si      -3.61924704       1.50403941      -0.33072706       0.00000000
