10
Lattice="16.28999089631971 0.0 0.0 0.0 16.28999089631971 0.0 0.0 0.0 34.56954931742767" Properties=species:S:1:pos:R:3:initial_magmoms:R:1 pbc="T T T"
Si       1.98260703       1.36790388      -0.16154359       0.00000000
Si       0.30719682      -2.26468467       0.78514404       0.00000000
Si       0.10803528      -0.90754848      -2.47946774       0.00000000
Si      -1.86580773       1.26840456       1.59597328       0.00000000
Si       2.50442460      -1.82413791       1.48033807       0.00000000
Si      -1.91976021       2.99498166       0.00923007       0.00000000
Si      -3.00807882      -1.98478989      -0.04452560       0.00000000
Si       3.69431136      -0.39231207      -0.28391987       0.00000000
Si      -1.66329045      -2.88209196       1.90357330       0.00000000
Si      -3.80001717       0.13053177       1.02543711       0.00000000
