10
Lattice="16.28999089631971 0.0 0.0 0.0 16.28999089631971 0.0 0.0 0.0 34.56954931742767" Properties=species:S:1:pos:R:3:initial_magmoms:R:1 pbc="T T T"
Si       0.94185100      -1.92023981       1.26815006       0.00000000
Si      -1.75443300       0.94278375       1.51953996       0.00000000
Si       1.81871075       1.76246397       0.22304286       0.00000000
Si      -0.52323480      -0.05054787      -2.51835851       0.00000000
Si       2.11311504      -0.58599691       3.04452605       0.00000000
Si      -0.04417848      -2.29512158      -3.00413008       0.00000000
Si      -1.09551879      -3.54655196      -0.97420501       0.00000000
Si      -0.54257103       2.34339795       3.00944831       0.00000000
Si       3.49440767       0.75523698       1.73891844       0.00000000
Si      -2.89753488       0.19696239      -2.73580109       0.00000000
