10
Lattice="16.28999089631971 0.0 0.0 0.0 16.28999089631971 0.0 0.0 0.0 34.56954931742767" Properties=species:S:1:pos:R:3:initial_magmoms:R:1 pbc="T T T"
Si       1.35312015      -1.35746199       1.35765067       0.00000000
Si       1.35615581       1.35783666      -1.35671729       0.00000000
Si      -1.35856971      -1.35689184      -1.35709756       0.00000000
Si      -1.35979146       1.35824391       1.35955200       0.00000000
Si       2.71352208       2.71336014       0.00000000       0.00000000
Si       2.71277600      -2.71492398       0.00065682       0.00000000
Si       2.71383322       0.00003258      -2.71426425       0.00000000
Si      -0.00092853      -2.71456560      -2.71429882       0.00000000
Si      -0.00146610       2.71577106      -2.71474823       0.00000000
Si      -2.71652040       0.00060273      -2.71433339       0.00000000
