10
Lattice="16.28999089631971 0.0 0.0 0.0 16.28999089631971 0.0 0.0 0.0 34.56954931742767" Properties=species:S:1:pos:R:3:initial_magmoms:R:1 pbc="T T T"
Si       1.35521397       1.34640108      -1.37258472       0.00000000
Si      -1.36054080      -1.36726857      -1.37019942       0.00000000
Si       1.37352393      -1.26195372       1.45907778       0.00000000
Si      -1.46955348       1.26648234       1.45465288       0.00000000
Si      -0.34363755      -2.35297647       2.64235955       0.00000000
Si       2.70630657       2.70223407      -0.00186676       0.00000000
Si      -2.72728809       2.69765658       0.00767444       0.00000000
Si       2.70993924      -2.72212416       0.00667193       0.00000000
Si       0.00022806       2.70471015      -2.73210215       0.00000000
Si       2.71500543      -0.01184283      -2.73213672       0.00000000
