10
Lattice="16.28999089631971 0.0 0.0 0.0 16.28999089631971 0.0 0.0 0.0 34.56954931742767" Properties=species:S:1:pos:R:3:initial_magmoms:R:1 pbc="T T T"
Si       0.85939524       1.64136411      -1.49651663       0.00000000
Si      -0.05795982       0.86680719       2.24014262       0.00000000
Si      -1.82022831      -0.95558769      -1.45012427       0.00000000
Si       1.73739107      -1.94254992       0.11449441       0.00000000
Si       0.46801170      -1.08458820       3.33385463       0.00000000
Si       3.00261257       1.98123867      -0.56808172       0.00000000
Si       2.23560606       0.28802349      -2.91722219       0.00000000
Si      -0.48381300      -2.41575813      -2.90253012       0.00000000
Si      -1.80631665      -1.82462661       2.84262106       0.00000000
Si       3.50553374      -1.14222222      -1.42755034       0.00000000
