10
Lattice="16.28999089631971 0.0 0.0 0.0 16.28999089631971 0.0 0.0 0.0 34.56954931742767" Properties=species:S:1:pos:R:3:initial_magmoms:R:1 pbc="T T T"
Si      -0.09580149       0.64873296       2.22489744       0.00000000
Si      -2.13615657      -0.84393603      -0.66532592       0.00000000
Si       0.93978639       1.74451239      -1.35364060       0.00000000
Si       1.56256938      -1.75477509       0.61741250       0.00000000
Si       2.61074943       0.38822328      -2.41195337       0.00000000
Si       2.24363799       0.81340857       2.66438036       0.00000000
Si       0.43049583      -2.77786854       2.41637828       0.00000000
Si      -1.04210388      -1.18218159       3.39082528       0.00000000
Si      -2.19370914      -1.14140772      -2.94650261       0.00000000
Si       2.00914344      -1.94012271      -2.66424209       0.00000000
