10
Lattice="16.28999089631971 0.0 0.0 0.0 16.28999089631971 0.0 0.0 0.0 34.56954931742767" Properties=species:S:1:pos:R:3:initial_magmoms:R:1 pbc="T T T"
Si       2.04893991       0.61675569      -0.88238824       0.00000000
Si       0.23069898      -2.09507319       1.03670679       0.00000000
Si      -0.65625894       1.86704577       1.27444172       0.00000000
Si      -1.25664318      -0.07398918      -2.01153406       0.00000000
Si      -2.13428322      -2.23614459       1.41614238       0.00000000
Si       1.31069340       2.80999242      -1.53302209       0.00000000
Si       0.00057015      -1.83216888      -2.94055665       0.00000000
Si      -0.61437735       2.09482884      -2.80822434       0.00000000
Si      -3.49264116      -0.36105156       0.65305372       0.00000000
Si       2.19126564      -0.94183893      -2.66807931       0.00000000
