10
Lattice="16.28999089631971 0.0 0.0 0.0 16.28999089631971 0.0 0.0 0.0 34.56954931742767" Properties=species:S:1:pos:R:3:initial_magmoms:R:1 pbc="T T T"
Si       1.02265362      -2.04030621      -0.59442373       0.00000000
Si       0.77815701       0.76512501       2.10293600       0.00000000
Si      -2.35253664      -0.30270078       0.05856085       0.00000000
Si       0.92958885       1.68165810      -1.42654782       0.00000000
Si       2.83911472      -1.87846506       1.03110652       0.00000000
Si       1.51011558      -1.62010566      -2.87846970       0.00000000
Si      -3.04362360      -0.04214223      -2.14711591       0.00000000
Si      -3.13085655       1.16945910       1.73784678       0.00000000
Si       3.01472092       0.12328272       2.32338614       0.00000000
Si      -0.75206043       3.22117550      -2.02632984       0.00000000
