10
Lattice="16.28999089631971 0.0 0.0 0.0 16.28999089631971 0.0 0.0 0.0 34.56954931742767" Properties=species:S:1:pos:R:3:initial_magmoms:R:1 pbc="T T T"
Si       1.35736627       1.35552348       1.35671729       0.00000000
Si      -1.35615581      -1.35783666       1.35671729       0.00000000
Si       1.35767741      -1.35780408      -1.35754696       0.00000000
Si      -1.35762191       1.35793440      -1.35803093       0.00000000
Si      -2.71472552      -2.71472850      -0.00038027       0.00000000
Si      -0.00303566      -2.71529865       2.71436796       0.00000000
Si      -0.00053459      -2.71511946      -2.71457538       0.00000000
Si       2.71486899       0.00014661      -2.71492107       0.00000000
Si      -2.71492100       2.71518462      -0.00041483       0.00000000
Si       0.00078453       2.71508688      -2.71502478       0.00000000
