10
Lattice="16.28999089631971 0.0 0.0 0.0 16.28999089631971 0.0 0.0 0.0 34.56954931742767" Properties=species:S:1:pos:R:3:initial_magmoms:R:1 pbc="T T T"
Si      -1.35719158      -1.35795069       1.35737411       0.00000000
Si       1.35770634       1.35780408       1.35744325       0.00000000
Si       1.35742941      -1.35747828      -1.36366577       0.00000000
Si      -1.35978820       1.36085031      -1.36124590       0.00000000
Si      -2.71408445       2.71494027      -0.00010371       0.00000000
Si       0.00048870      -2.71524978       2.71450624       0.00000000
Si      -2.71486899      -0.00014661       2.71492107       0.00000000
Si       0.00042354       2.71497285       2.71502478       0.00000000
Si       2.71529865      -0.00039096       2.71474823       0.00000000
Si       2.71520091       2.71490769       0.00034570       0.00000000
