10
Lattice="16.28999089631971 0.0 0.0 0.0 16.28999089631971 0.0 0.0 0.0 34.56954931742767" Properties=species:S:1:pos:R:3:initial_magmoms:R:1 pbc="T T T"
Si      -1.40151015       1.29847590       1.32245885       0.00000000
Si      -1.35648459      -1.34715042      -1.37102909       0.00000000
Si       1.35858600       1.36928853      -1.36781412       0.00000000
Si       1.35677781      -1.34358291       1.52016221       0.00000000
Si      -1.94945688      -1.01537199       2.34613291       0.00000000
Si       0.44442378       2.27980179       2.55451827       0.00000000
Si       2.25759852       0.67476438       2.88044017       0.00000000
Si       2.71337643      -2.70068652       0.01116597       0.00000000
Si      -2.71646338      -2.70858717      -0.00300755       0.00000000
Si      -0.00382815      -2.70234810      -2.72760810       0.00000000
