10
Lattice="16.28999089631971 0.0 0.0 0.0 16.28999089631971 0.0 0.0 0.0 34.56954931742767" Properties=species:S:1:pos:R:3:initial_magmoms:R:1 pbc="T T T"
Si      -1.35736627      -1.35552348      -1.35671729       0.00000000
Si      -1.35433335       1.35987291       1.35865319       0.00000000
Si       1.35792626       1.35959598      -1.35661358       0.00000000
Si       1.36080958      -1.35842310       1.35609504       0.00000000
Si      -2.71352208      -2.71336014       0.00000000       0.00000000
Si       2.71346602      -2.71362078      -0.00048397       0.00000000
Si       0.00031114      -2.71332756      -2.71426425       0.00000000
Si       2.71520905       0.00242721      -2.71419511       0.00000000
Si      -2.71498818       0.00241092      -2.71474823       0.00000000
Si       2.71496470       2.71630863       0.00096795       0.00000000
