10
Lattice="16.28999089631971 0.0 0.0 0.0 16.28999089631971 0.0 0.0 0.0 34.56954931742767" Properties=species:S:1:pos:R:3:initial_magmoms:R:1 pbc="T T T"
Si      -0.57512075      -2.10773052      -0.90126322       0.00000000
Si      -1.89620717       1.14715809      -0.84208012       0.00000000
Si       1.91896689       0.58283991      -1.60098586       0.00000000
Si      -0.58955369       0.33451515       2.50501465       0.00000000
Si       0.40134162      -2.17114749      -3.11478727       0.00000000
Si      -3.71552324       0.80153316       0.67877348       0.00000000
Si      -2.87082158      -2.58351255      -0.14647126       0.00000000
Si       1.05421712       2.14270515      -3.15426572       0.00000000
Si       3.72745011       1.59922188      -0.27019575       0.00000000
Si      -2.05808090       3.53486484      -0.05251117       0.00000000
