10
Lattice="16.28999089631971 0.0 0.0 0.0 16.28999089631971 0.0 0.0 0.0 34.56954931742767" Properties=species:S:1:pos:R:3:initial_magmoms:R:1 pbc="T T T"
Si       1.35771774      -1.35268902       1.35785809       0.00000000
Si       1.35667518       1.34989157      -1.36784178       0.00000000
Si      -1.35590889       1.36116027       1.35761610       0.00000000
Si      -1.33877314      -1.34519562      -1.39309139       0.00000000
Si      -0.00651926       2.58101433      -2.83591111       0.00000000
Si       2.71384395      -2.71228500      -0.00407921       0.00000000
Si       0.00017593      -2.71184517       2.71526677       0.00000000
Si      -2.71433332      -2.71308321      -0.00304212       0.00000000
Si      -2.71434961       0.00280188       2.71526677       0.00000000
Si       2.71500054       0.00280188       2.71543962       0.00000000
