10
Lattice="16.28999089631971 0.0 0.0 0.0 16.28999089631971 0.0 0.0 0.0 34.56954931742767" Properties=species:S:1:pos:R:3:initial_magmoms:R:1 pbc="T T T"
Si      -1.11605559      -1.61950293       1.33258773       0.00000000
Si       1.46548098       1.35969602       1.29006716       0.00000000
Si       1.41012756      -1.26539091      -1.49171146       0.00000000
Si      -1.29217004       1.44145716      -1.48196284       0.00000000
Si       2.87526645      -2.56751577      -0.10097771       0.00000000
Si      -2.73127004      -2.76726375      -0.03284109       0.00000000
Si       0.06038703      -2.62615977      -2.86726916       0.00000000
Si      -2.56472676       2.92769486      -0.04189832       0.00000000
Si      -2.65915271       0.08979782      -2.86540241       0.00000000
Si       2.70731655       2.86110134      -0.06011648       0.00000000
