10
Lattice="10.86 0.0 0.0 0.0 10.86 0.0 0.0 0.0 10.86" Properties=species:S:1:pos:R:3:initial_magmoms:R:1 pbc="T T T"
Si       1.21888296      -1.04918460       1.41357018       0.00000000
Si      -1.44491214      -1.26621084      -1.25435172       0.00000000
Si      -1.12897302       1.54286934       1.44007944       0.00000000
Si       2.64272670      -2.50906182      -0.02794278       0.00000000
Si      -0.07227330      -2.50906182       2.68705722       0.00000000
Si      -0.07227330      -2.50906182      -2.74294278       0.00000000
Si      -2.78727330      -2.50906182      -0.02794278       0.00000000
Si       2.64272670       0.20593818       2.68705722       0.00000000
Si      -2.78727330       0.20593818       2.68705722       0.00000000
Si      -2.78727330       0.20593818      -2.74294278       0.00000000
