10
Lattice="10.86 0.0 0.0 0.0 10.86 0.0 0.0 0.0 10.86" Properties=species:S:1:pos:R:3:initial_magmoms:R:1 pbc="T T T"
Si      -1.38855960      -1.13237220       1.32383400       0.00000000
Si       1.32644040      -1.13237220      -1.39116600       0.00000000
Si       1.20747996       1.47830664       1.18436988       0.00000000
Si      -1.38855960       1.58262780      -1.39116600       0.00000000
Si      -2.74605960      -2.48987220      -0.03366600       0.00000000
Si      -0.03105960      -2.48987220      -2.74866600       0.00000000
Si       2.73729558      -2.54400930      -0.11935140       0.00000000
Si      -0.04619844      -2.60452122       2.81242506       0.00000000
Si      -2.74605960       0.22512780       2.68133400       0.00000000
Si       2.68394040       0.22512780      -2.74866600       0.00000000
