10
Lattice="10.86 0.0 0.0 0.0 10.86 0.0 0.0 0.0 10.86" Properties=species:S:1:pos:R:3:initial_magmoms:R:1 pbc="T T T"
Si      -1.19827068       1.25846766      -1.24251432       0.00000000
Si       1.51672932      -1.45653234      -1.24251432       0.00000000
Si       1.51672932       1.25846766       1.47248568       0.00000000
Si      -2.38395462       2.74708044       0.02252364       0.00000000
Si      -2.55577068      -0.09903234      -2.60001432       0.00000000
Si       0.15922932       2.61596766      -2.60001432       0.00000000
Si      -2.50241550      -2.86816944       0.02930028       0.00000000
Si       0.15922932      -2.81403234      -2.60001432       0.00000000
Si       0.05216058       2.59046838       2.83842390       0.00000000
Si       2.87422932      -0.09903234      -2.60001432       0.00000000
