10
Lattice="10.86 0.0 0.0 0.0 10.86 0.0 0.0 0.0 10.86" Properties=species:S:1:pos:R:3:initial_magmoms:R:1 pbc="T T T"
Si      -1.32834090      -1.21839426       1.27371510       0.00000000
Si       1.38665910       1.49660574       1.27371510       0.00000000
Si      -1.32834090       1.49660574      -1.44128490       0.00000000
Si      -2.38504062      -2.59646310       0.02673732       0.00000000
Si       2.66456616      -2.39674770      -0.19632708       0.00000000
Si       0.02915910      -2.57589426       2.63121510       0.00000000
Si      -2.62424298       0.06379164      -2.58725382       0.00000000
Si      -2.68584090       0.13910574       2.63121510       0.00000000
Si       2.74415910       0.13910574       2.63121510       0.00000000
Si       2.63709036       0.11360646      -2.79034668       0.00000000
