10
Lattice="10.86 0.0 0.0 0.0 10.86 0.0 0.0 0.0 10.86" Properties=species:S:1:pos:R:3:initial_magmoms:R:1 pbc="T T T"
Si       1.27825458      -1.26444066      -1.38417216       0.00000000
Si      -1.43674542      -1.26444066       1.33082784       0.00000000
Si       1.27825458       1.45055934       1.33082784       0.00000000
Si       2.63575458      -2.62194066      -0.02667216       0.00000000
Si       2.45854110       0.09062670      -2.82494664       0.00000000
Si      -0.07924542      -2.62194066       2.68832784       0.00000000
Si       2.63575458       0.09305934       2.68832784       0.00000000
Si       2.57519922       2.75216292       0.00522366       0.00000000
Si      -0.07787706       2.66957262      -2.66911650       0.00000000
Si      -0.07924542      -2.62194066      -2.74167216       0.00000000
