10
Lattice="10.86 0.0 0.0 0.0 10.86 0.0 0.0 0.0 10.86" Properties=species:S:1:pos:R:3:initial_magmoms:R:1 pbc="T T T"
Si       1.35750000       1.35750000       1.35750000       0.00000000
Si      -1.35750000      -1.35750000       1.35750000       0.00000000
Si      -1.35750000       1.35750000      -1.35750000       0.00000000
Si       1.35750000      -1.35750000      -1.35750000       0.00000000
Si       2.55815988      -0.07114386       2.76376140       0.00000000
Si       2.65444464      -0.05589642      -2.68310418       0.00000000
Si      -2.67621894       0.05712360      -2.66384940       0.00000000
Si      -0.00977400      -2.73035604       2.62212528       0.00000000
Si      -0.04146348       2.65992894       2.71669416       0.00000000
Si      -2.71745436      -0.03504522       2.69337774       0.00000000
