10
Lattice="16.28999089631971 0.0 0.0 0.0 16.28999089631971 0.0 0.0 0.0 34.529650657227435" Properties=species:S:1:pos:R:3:initial_magmoms:R:1 pbc="T T T"
Si      -1.35760860      -1.35728280       1.35770662       0.00000000
Si       1.35796698       1.35780963       1.35819004       0.00000000
Si      -1.35811359       1.35817779      -1.36033088       0.00000000
Si       1.35729909      -1.35832536      -1.36212642       0.00000000
Si       2.71484253      -2.71409319       0.00027624       0.00000000
Si       2.71397916       2.71561534       0.00096683       0.00000000
Si      -0.00014661      -2.71420722       2.71548230       0.00000000
Si       0.00105885       2.71545244       2.71437736       0.00000000
Si       2.71487511       0.00014852       2.71496436       0.00000000
Si      -2.71513575      -0.00003209       2.71534419       0.00000000
