10
Lattice="16.28999089631971 0.0 0.0 0.0 16.28999089631971 0.0 0.0 0.0 34.529650657227435" Properties=species:S:1:pos:R:3:initial_magmoms:R:1 pbc="T T T"
Si      -0.32817834       2.19082581       0.72294770       0.00000000
Si       1.66728150      -0.52882227      -1.54862117       0.00000000
Si       1.28067093      -0.89630838       1.75262246       0.00000000
Si      -2.29574970      -0.81954990      -0.41704935       0.00000000
Si      -1.57946211       1.22225499       2.53651503       0.00000000
Si      -2.20848417      -1.07893557       2.27239758       0.00000000
Si       1.57148001      -2.84895435      -1.01534495       0.00000000
Si      -1.00639620       2.99750661      -1.43712486       0.00000000
Si      -0.29750427      -2.29425265       2.78989374       0.00000000
Si       1.92252951       0.96904323       3.06374856       0.00000000
