10
Lattice="16.28999089631971 0.0 0.0 0.0 16.28999089631971 0.0 0.0 0.0 34.529650657227435" Properties=species:S:1:pos:R:3:initial_magmoms:R:1 pbc="T T T"
Si      -1.35026181       1.34959392       1.35435724       0.00000000
Si      -1.35457866      -1.35850455      -1.35532408       0.00000000
Si       1.35917244       1.35519768      -1.35528955       0.00000000
Si       1.35917244      -1.35720135       1.36105600       0.00000000
Si      -0.00488700       2.69182476       2.70256821       0.00000000
Si      -0.02335986      -2.71257170       2.69797576       0.00000000
Si      -2.71262709      -0.00138465      -2.71206387       0.00000000
Si       0.00203625       2.71366965      -2.71158045       0.00000000
Si      -2.71349046       2.71207323       0.00331485       0.00000000
Si       0.00232947      -2.71614736      -2.71151139       0.00000000
