10
Lattice="16.28999089631971 0.0 0.0 0.0 16.28999089631971 0.0 0.0 0.0 34.529650657227435" Properties=species:S:1:pos:R:3:initial_magmoms:R:1 pbc="T T T"
Si      -0.51575769       2.26567836       0.32765204       0.00000000
Si      -2.04110442      -0.77797782      -0.98609831       0.00000000
Si       0.67821786      -0.80668080       2.16007256       0.00000000
Si       1.81610694      -0.43323255      -1.62541515       0.00000000
Si       1.00639620      -2.99750661       1.43712486       0.00000000
Si      -1.48204791      -3.06688572      -1.39192553       0.00000000
Si       1.46494341       3.48495228       0.17402954       0.00000000
Si      -1.62745245       2.39440194       2.44587464       0.00000000
Si      -1.87142778       2.97602010      -1.51239954       0.00000000
Si      -3.74340942      -0.76984911       0.67930220       0.00000000
