10
Lattice="16.28999089631971 0.0 0.0 0.0 16.28999089631971 0.0 0.0 0.0 34.529650657227435" Properties=species:S:1:pos:R:3:initial_magmoms:R:1 pbc="T T T"
Si      -1.35656604      -1.35555606      -1.35829363       0.00000000
Si      -1.35198855       1.36000323       1.36029635       0.00000000
Si       1.36203948      -1.35172791       1.35932952       0.00000000
Si       1.35905841       1.35933534      -1.35805192       0.00000000
Si       0.00105885      -2.71298547      -2.71527513       0.00000000
Si      -2.71446786      -2.71458189      -0.00037983       0.00000000
Si      -2.71402803       0.00228060      -2.71572401       0.00000000
Si       2.71585251      -2.71401174      -0.00117401       0.00000000
Si       2.71554300       0.00226431      -2.71544777       0.00000000
Si      -2.71520091       2.71624347      -0.00100136       0.00000000
