10
Lattice="16.28999089631971 0.0 0.0 0.0 16.28999089631971 0.0 0.0 0.0 34.529650657227435" Properties=species:S:1:pos:R:3:initial_magmoms:R:1 pbc="T T T"
Si       1.35198855      -1.36000323      -1.36029635       0.00000000
Si      -1.36304946      -1.35247725       1.36157395       0.00000000
Si      -1.36321236       1.35624024      -1.36129771       0.00000000
Si       1.35288450       1.34389242       1.39396278       0.00000000
Si       2.71037907       2.71394658       0.00069059       0.00000000
Si       2.71402803      -2.71173114      -0.00096683       0.00000000
Si       2.71104696      -0.00066789      -2.71834827       0.00000000
Si      -2.71691136       2.71564074       0.00103589       0.00000000
Si      -0.00477297       2.71516833      -2.71821015       0.00000000
Si      -0.00457749      -2.71555929      -2.71858997       0.00000000
