10
Lattice="16.28999089631971 0.0 0.0 0.0 16.28999089631971 0.0 0.0 0.0 34.529650657227435" Properties=species:S:1:pos:R:3:initial_magmoms:R:1 pbc="T T T"
Si       1.90692369      -1.55250216      -0.18832482       0.00000000
Si      -1.85798853      -0.90000621      -1.48843595       0.00000000
Si       1.13770989       1.99459647      -1.21979512       0.00000000
Si      -0.99207729      -1.03809654       2.26203868       0.00000000
Si      -0.23214879      -1.95887250      -2.75087522       0.00000000
Si       2.49248403       0.77030523      -2.72225012       0.00000000
Si       1.08888876      -3.37084083      -1.38201551       0.00000000
Si      -1.37546244       2.69775432       2.50122570       0.00000000
Si       2.39358744      -2.56215636       1.85103202       0.00000000
Si       3.78641502      -0.60040053      -1.23450476       0.00000000
