10
Lattice="16.28999089631971 0.0 0.0 0.0 16.28999089631971 0.0 0.0 0.0 34.529650657227435" Properties=species:S:1:pos:R:3:initial_magmoms:R:1 pbc="T T T"
Si       0.46534014       2.20841901      -0.54104540       0.00000000
Si      -2.08896444      -0.09966222      -1.03934307       0.00000000
Si      -0.29980116      -0.14265153       2.40029548       0.00000000
Si       1.64654433      -1.50614082      -1.06976370       0.00000000
Si       1.82581578      -1.14060951       2.59811596       0.00000000
Si       2.05288209      -2.75748975       0.86351799       0.00000000
Si      -2.28050226      -1.36192545       2.55391798       0.00000000
Si      -1.88716392      -1.83355353      -2.59045037       0.00000000
Si      -3.63617235      -0.65158371       0.71386640       0.00000000
Si      -2.27054907       1.90229733      -2.35126335       0.00000000
