10
Lattice="16.28999089631971 0.0 0.0 0.0 16.28999089631971 0.0 0.0 0.0 34.529650657227435" Properties=species:S:1:pos:R:3:initial_magmoms:R:1 pbc="T T T"
Si       0.20180052      -1.73389131      -1.55110730       0.00000000
Si       2.08896444       0.09966222       1.03934307       0.00000000
Si      -0.18158463       2.00195955      -1.31192028       0.00000000
Si      -1.54720791      -0.55192149       1.75320946       0.00000000
Si       2.55430458       2.30808123       0.49829767       0.00000000
Si      -2.40678234       1.63180188       2.07423180       0.00000000
Si      -2.03105349      -2.63526588      -1.31174763       0.00000000
Si       0.74086920       3.70457406      -0.05238151       0.00000000
Si      -0.19153782      -1.26226323       3.59326104       0.00000000
Si      -0.64822797       3.31939701       1.82192351       0.00000000
