10
Lattice="16.28999089631971 0.0 0.0 0.0 16.28999089631971 0.0 0.0 0.0 34.529650657227435" Properties=species:S:1:pos:R:3:initial_magmoms:R:1 pbc="T T T"
Si      -1.35288450      -1.34389242      -1.39396278       0.00000000
Si       1.35749457       1.37005416      -1.39327218       0.00000000
Si      -1.37116188       1.31171967       1.49285575       0.00000000
Si       1.36309833      -1.48525704       1.47569450       0.00000000
Si       0.28860993       2.51266734       2.84738564       0.00000000
Si      -2.71593396      -2.69636967      -0.03238883       0.00000000
Si       2.71787247      -2.70954828      -0.02676049       0.00000000
Si      -2.70857088       2.73020400      -0.00959925       0.00000000
Si       2.71428867       2.72676681      -0.01988909       0.00000000
Si      -0.00089595      -2.70389565      -2.75425912       0.00000000
