10
Lattice="16.28999089631971 0.0 0.0 0.0 16.28999089631971 0.0 0.0 0.0 34.529650657227435" Properties=species:S:1:pos:R:3:initial_magmoms:R:1 pbc="T T T"
Si       1.33327134       1.36061966       1.33971666       0.00000000
Si      -1.35464382       1.35501264      -1.35511690       0.00000000
Si       1.35707103      -1.35749457      -1.35515143       0.00000000
Si      -1.35006633      -1.35604476       1.39009545       0.00000000
Si       2.63176353      -0.01624272       2.69693987       0.00000000
Si      -2.71129131      -2.71450044       0.00676782       0.00000000
Si      -2.71414206      -0.00079771      -2.71261634       0.00000000
Si       0.00084708      -2.71497285      -2.71247822       0.00000000
Si       0.00205254       2.71468682      -2.71358317       0.00000000
Si       2.71586880      -0.00061710      -2.71299617       0.00000000
