10
Lattice="16.28999089631971 0.0 0.0 0.0 16.28999089631971 0.0 0.0 0.0 34.529650657227435" Properties=species:S:1:pos:R:3:initial_magmoms:R:1 pbc="T T T"
Si      -1.72815723       1.24778142       1.01914321       0.00000000
Si       0.98464905       1.55733870      -1.55014047       0.00000000
Si      -1.65977181      -1.20094767      -1.35452989       0.00000000
Si       1.92940389      -0.54048591       1.66415744       0.00000000
Si      -0.71856819       1.92655707       2.97780421       0.00000000
Si       0.87379560       0.36934317       3.58500845       0.00000000
Si       2.42567874       0.21409947      -2.86727473       0.00000000
Si      -0.28860993      -2.51266734      -2.84738564       0.00000000
Si       1.93627827       3.33463535      -0.17734438       0.00000000
Si      -0.51623010      -1.59215202       3.60886846       0.00000000
