10
Lattice="16.28999089631971 0.0 0.0 0.0 16.28999089631971 0.0 0.0 0.0 34.529650657227435" Properties=species:S:1:pos:R:3:initial_magmoms:R:1 pbc="T T T"
Si      -0.92245383      -1.70261451      -1.25953877       0.00000000
Si       1.81343538      -1.39649283       0.55067918       0.00000000
Si      -1.38909717      -0.38517705       1.87430501       0.00000000
Si       1.39002570       1.96149519      -0.02386000       0.00000000
Si       2.44563399       1.05166611      -1.94471101       0.00000000
Si       0.38698524      -0.12694797       3.45010103       0.00000000
Si       2.53294839      -0.11373678       2.44784283       0.00000000
Si      -0.20233809       3.51870909      -0.63106425       0.00000000
Si      -2.37050451       1.73283246       2.09284330       0.00000000
Si      -3.20956983      -0.97094916      -1.43505308       0.00000000
