10
Lattice="16.28999089631971 0.0 0.0 0.0 16.28999089631971 0.0 0.0 0.0 34.529650657227435" Properties=species:S:1:pos:R:3:initial_magmoms:R:1 pbc="T T T"
Si      -1.59236379       1.55721390      -0.60720425       0.00000000
Si       1.48361175       0.14309136       1.83583896       0.00000000
Si       1.05560829      -0.90982908      -1.92085101       0.00000000
Si      -1.39002570      -1.96149519       0.02386000       0.00000000
Si       1.14292269      -2.07523197       2.47170283       0.00000000
Si       0.42340968      -3.35798802       0.57453918       0.00000000
Si       2.07879948       2.19080530      -1.75465971       0.00000000
Si      -0.87379560      -0.36934317      -3.58500845       0.00000000
Si      -2.60195283       0.87843825      -2.56586524       0.00000000
Si      -3.73317930       0.91440657       0.11315373       0.00000000
