10
Lattice="16.28999089631971 0.0 0.0 0.0 16.28999089631971 0.0 0.0 0.0 34.529650657227435" Properties=species:S:1:pos:R:3:initial_magmoms:R:1 pbc="T T T"
Si      -1.81443233      -0.80959345       1.34520830       0.00000000
Si       0.86732847       1.87159068       1.26976097       0.00000000
Si      -1.44511848      -0.79426619      -1.82786261       0.00000000
Si       1.99042623      -1.64134456      -0.04702941       0.00000000
Si      -0.45626661      -2.14650010       2.73828367       0.00000000
Si      -0.04913064      -0.11209149      -3.59357181       0.00000000
Si       2.26038411       0.59289084       2.74844575       0.00000000
Si       0.96210369      -3.44084615       1.25516874       0.00000000
Si      -1.93286552      -3.11480180      -1.38377652       0.00000000
Si       2.30242860       0.00364896      -3.19492677       0.00000000
