10
Lattice="16.28999089631971 0.0 0.0 0.0 16.28999089631971 0.0 0.0 0.0 34.529650657227435" Properties=species:S:1:pos:R:3:initial_magmoms:R:1 pbc="T T T"
Si      -0.45085833      -1.82574573      -1.52337998       0.00000000
Si       0.77268357       1.82400759      -1.39434260       0.00000000
Si       1.46175057      -0.76457115       1.78097132       0.00000000
Si      -2.00544561       0.38133261       1.32566309       0.00000000
Si       2.64359007       2.65298940      -0.17347706       0.00000000
Si      -1.66265514      -0.44689986       3.46163394       0.00000000
Si       0.65836035       0.06597450       3.82650896       0.00000000
Si      -1.07308746       3.34941948      -1.65459272       0.00000000
Si       1.18195353      -3.13798247       1.97095356       0.00000000
Si      -1.46717514      -1.05125886      -3.53107311       0.00000000
