10
Lattice="16.28999089631971 0.0 0.0 0.0 16.28999089631971 0.0 0.0 0.0 34.529650657227435" Properties=species:S:1:pos:R:3:initial_magmoms:R:1 pbc="T T T"
Si       0.71241057      -1.10642773      -1.92779147       0.00000000
Si      -1.91220165      -1.20240841       0.67878425       0.00000000
Si       0.09580149       2.32013208      -0.53327622       0.00000000
Si       1.25279874       0.35548967       2.00658818       0.00000000
Si      -0.29080908       1.95264597       2.76796740       0.00000000
Si      -1.57148001       2.84895435       1.01534495       0.00000000
Si       0.37172151      -3.32475106      -1.29192760       0.00000000
Si       2.94041016      -0.37095052      -2.02395660       0.00000000
Si       3.27417597       1.16906439       1.25183865       0.00000000
Si       2.41681698       2.83300644      -0.16840120       0.00000000
