10
Lattice="16.28999089631971 0.0 0.0 0.0 16.28999089631971 0.0 0.0 0.0 34.529650657227435" Properties=species:S:1:pos:R:3:initial_magmoms:R:1 pbc="T T T"
Si      -0.64185858      -1.86535161      -1.31112610       0.00000000
Si      -1.99469421       0.14574663       1.28181041       0.00000000
Si       1.63753596      -0.93136446       1.46202076       0.00000000
Si      -0.41316327       2.15620956      -1.07660058       0.00000000
Si      -2.25070785       1.22178258      -2.34080086       0.00000000
Si      -3.50199162       0.25321176      -0.52723353       0.00000000
Si      -1.60904475       2.15811549       2.41500512       0.00000000
Si      -1.92252951      -0.96904323      -3.06374856       0.00000000
Si       0.75297267      -3.27834295       1.64651278       0.00000000
Si       1.27824372       0.12427641       3.62685841       0.00000000
