10
Lattice="16.28999089631971 0.0 0.0 0.0 16.28999089631971 0.0 0.0 0.0 34.529650657227435" Properties=species:S:1:pos:R:3:initial_magmoms:R:1 pbc="T T T"
Si       1.39598784       0.68217470      -1.76570920       0.00000000
Si      -0.48774703      -2.32053561       0.44408609       0.00000000
Si       1.44511848       0.79426619       1.82786261       0.00000000
Si      -2.14266347       0.97309781      -0.87328988       0.00000000
Si      -2.17811051      -1.07151385       2.01942497       0.00000000
Si      -0.36931385      -0.01532726       3.17307091       0.00000000
Si       0.72150039       3.01299677      -1.84550727       0.00000000
Si       0.32410584      -0.53068259      -3.56035427       0.00000000
Si      -1.45687334       3.28811858      -0.81420962       0.00000000
Si      -2.04262658       0.07006329      -3.09378937       0.00000000
