10
Lattice="16.28999089631971 0.0 0.0 0.0 16.28999089631971 0.0 0.0 0.0 34.529650657227435" Properties=species:S:1:pos:R:3:initial_magmoms:R:1 pbc="T T T"
Si       1.90149912       1.02866463      -0.84991330       0.00000000
Si      -1.57123566      -0.69978582      -1.61847469       0.00000000
Si       0.26505459      -1.72567463       1.68197475       0.00000000
Si      -1.85266170       1.16038557       1.20208140       0.00000000
Si      -2.97351144      -0.82194453       0.28383389       0.00000000
Si      -0.58609791      -0.02827944       3.27158264       0.00000000
Si       1.10149722       3.22585983      -0.95698980       0.00000000
Si      -1.37143881       1.05013485      -3.19496130       0.00000000
Si      -1.92270870      -2.77098602       1.48018336       0.00000000
Si       1.87279614      -3.15057464      -0.68603548       0.00000000
