10
Lattice="16.28999089631971 0.0 0.0 0.0 16.28999089631971 0.0 0.0 0.0 34.529650657227435" Properties=species:S:1:pos:R:3:initial_magmoms:R:1 pbc="T T T"
Si       0.57301704       0.06778269      -2.27039486       0.00000000
Si      -0.83163708       2.19499605       0.07997072       0.00000000
Si      -2.05363143      -1.05932241       0.64877797       0.00000000
Si       1.48067955      -1.21091715       1.50207517       0.00000000
Si       2.36705103       0.99461853      -1.06548203       0.00000000
Si      -1.25362953      -3.25651761       0.75585448       0.00000000
Si      -2.38723434       2.05296354      -1.68794839       0.00000000
Si      -1.96651251       2.21465808       2.10965925       0.00000000
Si       2.10571056       0.50015187       2.96454481       0.00000000
Si      -2.13469047      -0.05546745       2.98843935       0.00000000
