10
Lattice="16.28999089631971 0.0 0.0 0.0 16.28999089631971 0.0 0.0 0.0 34.529650657227435" Properties=species:S:1:pos:R:3:initial_magmoms:R:1 pbc="T T T"
Si       0.88267365      -0.47788344      -2.10570495       0.00000000
Si       1.76425587       1.06111431       1.17079959       0.00000000
Si      -1.06028352      -1.85893335       1.10740657       0.00000000
Si      -1.77437196       1.75228272      -0.21375527       0.00000000
Si      -2.28486798      -0.35539893       2.60898452       0.00000000
Si       0.44628084       2.40345918       2.61203003       0.00000000
Si      -0.78376077      -1.72555083      -3.10540795       0.00000000
Si       1.19765709       1.52067150      -3.39024320       0.00000000
Si       3.11953500       2.34155718      -0.42770111       0.00000000
Si      -3.67950375       0.85641417       1.10995141       0.00000000
