10
Lattice="16.28999089631971 0.0 0.0 0.0 16.28999089631971 0.0 0.0 0.0 34.529650657227435" Properties=species:S:1:pos:R:3:initial_magmoms:R:1 pbc="T T T"
Si      -1.85321556      -0.83660553      -1.23440117       0.00000000
Si       0.79097724       1.86259860      -1.32590480       0.00000000
Si      -0.24031008       0.40772241       2.38565490       0.00000000
Si       1.78272873      -1.66224789      -0.10490114       0.00000000
Si      -0.99830007       2.62083294       1.80144741       0.00000000
Si      -0.49844142      -2.06089677      -2.73685617       0.00000000
Si       2.21444631       0.65757843      -2.75242905       0.00000000
Si       0.79548957      -3.43160253      -1.24911081       0.00000000
Si       3.54076182      -0.67210911      -1.31330147       0.00000000
Si       2.66553270       2.83283100      -0.03884588       0.00000000
