10
Lattice="16.28999089631971 0.0 0.0 0.0 16.28999089631971 0.0 0.0 0.0 34.529650657227435" Properties=species:S:1:pos:R:3:initial_magmoms:R:1 pbc="T T T"
Si       1.35279228       1.35260757       1.37466760       0.00000000
Si      -1.35939076      -1.36373364       1.37100745       0.00000000
Si      -1.46416804       1.22878728      -1.42675906       0.00000000
Si       1.30326254      -1.44656829      -1.42380332       0.00000000
Si      -2.24838493      -0.72228231      -2.63247816       0.00000000
Si      -0.43560115      -2.45070018      -2.86175831       0.00000000
Si       2.71264402       2.69723304      -0.01047285       0.00000000
Si      -2.73333823       2.70168021      -0.00843560       0.00000000
Si      -0.00414751       2.70686043       2.73475677       0.00000000
Si      -0.14819668       2.81344590      -2.62251946       0.00000000
