10
Lattice="16.28999089631971 0.0 0.0 0.0 16.28999089631971 0.0 0.0 0.0 34.529650657227435" Properties=species:S:1:pos:R:3:initial_magmoms:R:1 pbc="T T T"
Si      -1.05560829       0.90982908       1.92085101       0.00000000
Si       0.75798999      -2.21311053       0.58420749       0.00000000
Si       2.31982632       1.05169869      -0.00852883       0.00000000
Si      -1.92940389       0.54048591      -1.66415744       0.00000000
Si       1.02319119       3.10063438       0.16619130       0.00000000
Si      -2.44563399      -1.05166611       1.94471101       0.00000000
Si       0.99830007      -2.62083294      -1.80144741       0.00000000
Si      -0.63219861      -2.44815894       2.49539019       0.00000000
Si       1.78927731      -0.75823434      -3.12735221       0.00000000
Si      -2.64797208       2.46704298       1.31364676       0.00000000
