10
Lattice="16.28999089631971 0.0 0.0 0.0 16.28999089631971 0.0 0.0 0.0 34.529650657227435" Properties=species:S:1:pos:R:3:initial_magmoms:R:1 pbc="T T T"
Si      -0.49656807       0.77661990      -2.14422344       0.00000000
Si      -0.50378454      -2.29679226      -0.14333266       0.00000000
Si       2.32806906       0.29830234       0.48617775       0.00000000
Si      -1.60774155       1.42490000       2.36801024       0.00000000
Si       1.79828568      -1.32209640       2.35485443       0.00000000
Si      -2.88272727       0.41605216      -1.86211604       0.00000000
Si      -1.87279614       3.15057464       0.68603548       0.00000000
Si       1.29723786      -3.39335361       0.90509171       0.00000000
Si       0.33928812       0.18582003       3.75296077       0.00000000
Si      -2.03730885      -2.88598527       1.63553235       0.00000000
