10
Lattice="16.28999089631971 0.0 0.0 0.0 16.28999089631971 0.0 0.0 0.0 34.529650657227435" Properties=species:S:1:pos:R:3:initial_magmoms:R:1 pbc="T T T"
Si       1.90257426       0.81994575      -1.26053465       0.00000000
Si       1.34231229      -1.29771682       1.55638689       0.00000000
Si      -1.34397387       1.41648555       1.52775489       0.00000000
Si      -1.54684953      -1.29890174      -1.59882182       0.00000000
Si      -2.64912867      -2.67949553       0.04682223       0.00000000
Si       2.56275909      -2.78239946       0.19179850       0.00000000
Si       2.66175342       2.72442594       0.11063652       0.00000000
Si      -2.72482830       2.72509383      -0.02987852       0.00000000
Si       1.15709499       0.91110459      -3.61076210       0.00000000
Si       3.63188808      -1.02552066      -0.99542409       0.00000000
