10
Lattice="16.28999089631971 0.0 0.0 0.0 16.28999089631971 0.0 0.0 0.0 34.529650657227435" Properties=species:S:1:pos:R:3:initial_magmoms:R:1 pbc="T T T"
Si       1.15742079      -1.51435098       1.31295617       0.00000000
Si       1.36990739       1.33995024      -1.36626998       0.00000000
Si      -1.34470692      -1.37156913      -1.36406008       0.00000000
Si      -1.39602042       1.25354808       1.48339462       0.00000000
Si      -0.83222352      -2.17592046       2.69317614       0.00000000
Si       0.20313630       2.39352228       2.90473943       0.00000000
Si      -2.70875007       2.69812899       0.02910851       0.00000000
Si      -2.64370410      -0.31873014       2.74521235       0.00000000
Si       0.00975771       2.70249471      -2.72466720       0.00000000
Si      -2.70759348      -0.01363473      -2.72632462       0.00000000
