10
Lattice="16.28999089631971 0.0 0.0 0.0 16.28999089631971 0.0 0.0 0.0 34.529650657227435" Properties=species:S:1:pos:R:3:initial_magmoms:R:1 pbc="T T T"
Si      -0.39278448      -1.02812706       2.07575111       0.00000000
Si       0.58225347      -1.70145792      -1.51823506       0.00000000
Si       2.15380257       0.98526807      -0.12002513       0.00000000
Si      -1.56076119       1.88802729      -0.17496184       0.00000000
Si      -2.74260069      -1.52953326       1.77948654       0.00000000
Si       2.27249477       1.66074921      -2.40402468       0.00000000
Si       0.77239035      -3.06686780       1.95168601       0.00000000
Si       0.36768159      -3.78046007      -0.29125777       0.00000000
Si      -3.43166769       1.05904548      -1.39582738       0.00000000
Si       2.48731588      -0.76545081      -2.84931931       0.00000000
