10
Lattice="16.28999089631971 0.0 0.0 0.0 16.28999089631971 0.0 0.0 0.0 34.529650657227435" Properties=species:S:1:pos:R:3:initial_magmoms:R:1 pbc="T T T"
Si      -1.87090650      -0.82898181      -1.22086554       0.00000000
Si      -0.87247611       0.59150619       2.16141922       0.00000000
Si       1.56076119      -1.88802729       0.17496184       0.00000000
Si       1.09009422       1.94194719      -1.14552180       0.00000000
Si       0.26555958       2.65561209       1.98842557       0.00000000
Si       2.37091176       2.57579109       0.82045949       0.00000000
Si      -2.64359007      -2.65298940       0.17347706       0.00000000
Si      -0.84307266      -1.69850943      -3.31218953       0.00000000
Si       3.71456376      -0.90275922       0.05493670       0.00000000
Si      -1.24528905       3.62364534       0.40078588       0.00000000
