10
Lattice="16.28999089631971 0.0 0.0 0.0 16.28999089631971 0.0 0.0 0.0 34.529650657227435" Properties=species:S:1:pos:R:3:initial_magmoms:R:1 pbc="T T T"
Si      -1.84671585       1.40066307      -0.13376794       0.00000000
Si      -0.73466271      -1.72056609       1.40725670       0.00000000
Si      -0.12320127      -0.88099578      -2.18907749       0.00000000
Si       1.30558064       1.71452250       1.03740940       0.00000000
Si       2.37795623       1.55924622      -1.15860855       0.00000000
Si       1.42330358       0.61784712      -3.15532124       0.00000000
Si      -2.49254919      -1.30391676      -2.32695446       0.00000000
Si      -0.80998767      -3.59047890      -0.14609503       0.00000000
Si      -2.73308733      -0.80487261       2.43378926       0.00000000
Si       0.40679388      -3.13468470      -2.20282029       0.00000000
