10
Lattice="16.28999089631971 0.0 0.0 0.0 16.28999089631971 0.0 0.0 0.0 34.529650657227435" Properties=species:S:1:pos:R:3:initial_magmoms:R:1 pbc="T T T"
Si       1.31597136       1.58465862      -1.19576040       0.00000000
Si       1.46416804      -1.22878728       1.42675906       0.00000000
Si      -1.26917019       1.47289293       1.41832346       0.00000000
Si      -0.78421689      -1.95106959      -1.20571910       0.00000000
Si       0.10477728      -2.59252092       2.79776651       0.00000000
Si      -2.70154989      -2.71427238      -0.04607639       0.00000000
Si      -2.61254133       0.12647556       2.79866428       0.00000000
Si       2.76743058      -2.67535557       0.00295574       0.00000000
Si      -2.64419280       2.86557390      -0.01007921       0.00000000
Si      -0.08255772       2.56267764      -2.95064459       0.00000000
