10
Lattice="16.28999089631971 0.0 0.0 0.0 16.28999089631971 0.0 0.0 0.0 34.529650657227435" Properties=species:S:1:pos:R:3:initial_magmoms:R:1 pbc="T T T"
Si      -1.34337114      -1.34641737       1.38034082       0.00000000
Si       1.37619549       1.36181142       1.38186013       0.00000000
Si       1.26917019      -1.47289293      -1.41832346       0.00000000
Si      -1.37502261       1.39268097      -1.42840267       0.00000000
Si       2.58514155       0.11176569      -2.61408386       0.00000000
Si      -2.70236439      -2.71564074      -0.00609794       0.00000000
Si      -2.69299764       2.73502584       0.01282777       0.00000000
Si       2.73333823      -2.70168021       0.00843560       0.00000000
Si      -2.70115893       0.00495216       2.74188024       0.00000000
Si       0.01335780      -2.70951570       2.74146588       0.00000000
