10
Lattice="16.28999089631971 0.0 0.0 0.0 16.28999089631971 0.0 0.0 0.0 34.529650657227435" Properties=species:S:1:pos:R:3:initial_magmoms:R:1 pbc="T T T"
Si       1.35713619       1.35487188       1.35787927       0.00000000
Si      -1.35692442       1.35710361      -1.35725774       0.00000000
Si       1.35817875      -1.35791811      -1.35725774       0.00000000
Si      -1.35931905      -1.35726651       1.35715415       0.00000000
Si      -2.71210581      -0.00167787       2.71482624       0.00000000
Si      -2.71397916       2.71415835       0.00013812       0.00000000
Si       2.71501842      -0.00205254      -2.71337599       0.00000000
Si       2.71550160       2.71428867       0.00020718       0.00000000
Si      -2.71469592      -2.71513575       0.00044889       0.00000000
Si      -2.71533123      -0.00228060      -2.71468812       0.00000000
