10
Lattice="16.28999089631971 0.0 0.0 0.0 16.28999089631971 0.0 0.0 0.0 34.529650657227435" Properties=species:S:1:pos:R:3:initial_magmoms:R:1 pbc="T T T"
Si       1.33887184       1.35319401      -1.37662888       0.00000000
Si      -1.36377682      -1.37137365      -1.37113866       0.00000000
Si       1.84721758      -0.70553619       1.34092520       0.00000000
Si      -1.37063431       1.26394110       1.51112195       0.00000000
Si       0.94488190       0.11117925       3.40704253       0.00000000
Si       2.70408787       2.71052568      -0.00749294       0.00000000
Si      -2.71946304       2.69772174       0.01964738       0.00000000
Si       2.71220029      -2.70857088       0.02095951       0.00000000
Si       2.70465802      -0.01158219      -2.72974306       0.00000000
Si      -0.01066832       2.70370017      -2.73167672       0.00000000
