10
Lattice="16.28999089631971 0.0 0.0 0.0 16.28999089631971 0.0 0.0 0.0 34.529650657227435" Properties=species:S:1:pos:R:3:initial_magmoms:R:1 pbc="T T T"
Si      -2.16722160       0.76805721      -0.21781316       0.00000000
Si       0.14639823      -1.45402911      -1.81563911       0.00000000
Si       0.50598369      -1.31859405       1.85956085       0.00000000
Si       1.74992067       1.55712852       0.03667051       0.00000000
Si      -1.74736314       1.60210521      -2.43610274       0.00000000
Si       2.82993138      -1.58931756       1.27514618       0.00000000
Si       1.14087015       2.77340508       1.96093996       0.00000000
Si       3.61614447       0.15195312      -0.19474734       0.00000000
Si      -1.36445040      -0.48599586      -3.40327880       0.00000000
Si      -3.50852391      -1.19620728       0.31439264       0.00000000
