10
Lattice="16.28999089631971 0.0 0.0 0.0 16.28999089631971 0.0 0.0 0.0 34.529650657227435" Properties=species:S:1:pos:R:3:initial_magmoms:R:1 pbc="T T T"
Si       1.35489699       1.35827649       1.36614222       0.00000000
Si      -1.35438318      -1.36251189       1.36379420       0.00000000
Si       1.39846459      -1.26983808      -1.41551965       0.00000000
Si      -1.52054118       1.22359077      -1.36902200       0.00000000
Si      -0.14543712      -2.61255762      -2.63214978       0.00000000
Si       2.71555019       2.69974951      -0.00952328       0.00000000
Si       2.71183607      -0.00387702       2.72391790       0.00000000
Si      -0.00011701       2.71161456       2.72433226       0.00000000
Si      -2.71743264      -0.00136836       2.72405602       0.00000000
Si       2.71540358      -2.72877048      -0.02010317       0.00000000
