10
Lattice="16.28999089631971 0.0 0.0 0.0 16.28999089631971 0.0 0.0 0.0 34.529650657227435" Properties=species:S:1:pos:R:3:initial_magmoms:R:1 pbc="T T T"
Si      -0.81349002      -1.67026257      -1.45145468       0.00000000
Si       1.76893110       0.87952968      -1.44157919       0.00000000
Si       0.08288352      -1.18526040       2.16193717       0.00000000
Si      -1.68871914       1.83467754      -0.17699909       0.00000000
Si      -2.13980553      -0.34057503      -2.89058226       0.00000000
Si      -2.57152311      -2.66040135      -0.24305435       0.00000000
Si      -1.27811340      -3.08216574       1.63397851       0.00000000
Si       0.58085253       2.38813029      -2.87072770       0.00000000
Si      -3.56327460       0.86444514      -1.46405801       0.00000000
Si       2.46914113       2.00339307       2.36521333       0.00000000
