10
Lattice="16.28999089631971 0.0 0.0 0.0 16.28999089631971 0.0 0.0 0.0 34.529650657227435" Properties=species:S:1:pos:R:3:initial_magmoms:R:1 pbc="T T T"
Si       2.09226221       0.98127702       0.37837612       0.00000000
Si      -1.03614174       1.14551280      -1.79571549       0.00000000
Si       0.50173577      -1.89776871      -1.43912758       0.00000000
Si      -1.10024289      -0.82513737       2.08148303       0.00000000
Si      -1.67692518      -2.65989636      -1.06738116       0.00000000
Si       0.90623943       1.12314663      -3.14282150       0.00000000
Si       2.72595950       1.90179234      -1.74972197       0.00000000
Si       1.84766134      -2.41772922       2.26687283       0.00000000
Si       3.36257270      -0.69696765       1.62134065       0.00000000
Si      -2.33507376      -2.74522338       1.24911081       0.00000000
