10
Lattice="16.28999089631971 0.0 0.0 0.0 16.28999089631971 0.0 0.0 0.0 34.529650657227435" Properties=species:S:1:pos:R:3:initial_magmoms:R:1 pbc="T T T"
Si       1.34211541       1.11983976       1.62323978       0.00000000
Si       1.37063431      -1.26394110      -1.51112195       0.00000000
Si      -1.15991360      -1.58174271       1.38874880       0.00000000
Si      -1.34882873       1.43378064      -1.49147456       0.00000000
Si       2.31551621      -1.15276185       1.89592059       0.00000000
Si       0.66957461      -2.82276378       2.31234841       0.00000000
Si       2.57006375       2.69457777      -0.13300829       0.00000000
Si       3.21785189      -1.96947729      -0.17019674       0.00000000
Si      -2.75907032      -2.72171691      -0.03259601       0.00000000
Si       0.00685749      -2.63531475      -2.88226061       0.00000000
