10
Lattice="16.28999089631971 0.0 0.0 0.0 16.28999089631971 0.0 0.0 0.0 34.529650657227435" Properties=species:S:1:pos:R:3:initial_magmoms:R:1 pbc="T T T"
Si      -1.35671265       1.35812988      -1.35687791       0.00000000
Si       1.35835794      -1.35674523      -1.35698150       0.00000000
Si       1.35718506       1.35721764       1.35774115       0.00000000
Si      -1.35740823      -1.35832536       1.35642902       0.00000000
Si      -0.00786807      -2.70883152       2.71147686       0.00000000
Si      -2.71234017       0.00255753       2.71458453       0.00000000
Si      -2.71305824      -2.71402803       0.00031077       0.00000000
Si      -2.71446206      -0.00097740      -2.71306523       0.00000000
Si       0.00040725      -2.71420722      -2.71410112       0.00000000
Si      -0.00123804       2.71428867      -2.71427377       0.00000000
