10
Lattice="16.28999089631971 0.0 0.0 0.0 16.28999089631971 0.0 0.0 0.0 34.529650657227435" Properties=species:S:1:pos:R:3:initial_magmoms:R:1 pbc="T T T"
Si       1.33025096       1.34550513       1.36775476       0.00000000
Si      -1.36000411       1.35338949      -1.35639450       0.00000000
Si       1.35493194      -1.36088289      -1.35815551       0.00000000
Si      -1.35386278      -1.36686132       1.39316859       0.00000000
Si       2.56502970      -0.10606419       2.75163487       0.00000000
Si      -0.16487197       2.57134392       2.80508680       0.00000000
Si       2.70447210      -2.71138905      -0.00310767       0.00000000
Si      -0.00163870       2.71280628      -2.71406659       0.00000000
Si       2.71234017      -0.00255753      -2.71458453       0.00000000
Si       2.71582623       2.71406061       0.00549022       0.00000000
