10
Lattice="16.28999089631971 0.0 0.0 0.0 16.28999089631971 0.0 0.0 0.0 34.529650657227435" Properties=species:S:1:pos:R:3:initial_magmoms:R:1 pbc="T T T"
Si      -1.35501400       1.35333807       1.35819004       0.00000000
Si       1.35693908      -1.36215351       1.35777568       0.00000000
Si       1.36065320       1.34147302      -1.37566550       0.00000000
Si      -1.35489699      -1.35827649      -1.36614222       0.00000000
Si       0.04356761      -2.62811457      -2.78166187       0.00000000
Si      -2.71102320       2.70979656      -0.00583551       0.00000000
Si       0.00177887       2.71130338       2.71503342       0.00000000
Si       2.71583459       2.71208856      -0.00293502       0.00000000
Si      -2.71322235      -0.00366525       2.71527513       0.00000000
Si      -2.70928017      -2.72078838      -0.00234802       0.00000000
