10
Lattice="16.28999089631971 0.0 0.0 0.0 16.28999089631971 0.0 0.0 0.0 34.529650657227435" Properties=species:S:1:pos:R:3:initial_magmoms:R:1 pbc="T T T"
Si      -1.35350745       1.35641270       1.35784474       0.00000000
Si      -1.35538961      -1.35718506      -1.35649808       0.00000000
Si       1.35922457       1.35777200      -1.35632544       0.00000000
Si       1.36207532      -1.35593073       1.36305872       0.00000000
Si      -2.71281021       0.00022806      -2.71379035       0.00000000
Si      -2.71334778       2.71427794       0.00169195       0.00000000
Si       0.00187661      -2.71441899      -2.71389394       0.00000000
Si       0.00219101       2.71519669      -2.71403206       0.00000000
Si      -2.71375503      -2.71660185       0.00117401       0.00000000
Si       2.71675172       0.00052128      -2.71396300       0.00000000
