10
Lattice="16.28999089631971 0.0 0.0 0.0 16.28999089631971 0.0 0.0 0.0 34.529650657227435" Properties=species:S:1:pos:R:3:initial_magmoms:R:1 pbc="T T T"
Si      -1.33025096      -1.34550513      -1.36775476       0.00000000
Si       1.23477874      -1.45156932       1.38388011       0.00000000
Si       1.38557527       1.36855548      -1.36226454       0.00000000
Si      -1.49512293       1.22583879       1.43733204       0.00000000
Si       2.07232909       0.38296161       2.62598140       0.00000000
Si       0.36101572       2.27292741       2.82984457       0.00000000
Si      -2.68411374      -2.71236645       0.02541384       0.00000000
Si      -2.69025507       0.00788436      -2.72414925       0.00000000
Si      -2.68320150       2.73443940       0.00818353       0.00000000
Si       0.02468098      -2.70638802      -2.72591026       0.00000000
