10
Lattice="16.28999089631971 0.0 0.0 0.0 16.28999089631971 0.0 0.0 0.0 34.529650657227435" Properties=species:S:1:pos:R:3:initial_magmoms:R:1 pbc="T T T"
Si       0.09218185      -1.16367615       2.01715426       0.00000000
Si       2.42006521       0.00397476      -0.12769072       0.00000000
Si      -1.77561067       1.53016857       0.69787916       0.00000000
Si       1.15592863      -0.07677477      -2.41427999       0.00000000
Si       2.81309404      -2.40332886      -0.19226120       0.00000000
Si       1.37001181       0.07467336       3.57340648       0.00000000
Si       1.09901137      -3.26223540       1.74803001       0.00000000
Si      -1.37090191       2.24376084       2.94082293       0.00000000
Si      -2.46914113      -2.00339307      -2.36521333       0.00000000
Si      -1.56103879       3.60917072      -0.52909813       0.00000000
