10
Lattice="10.86 0.0 0.0 0.0 10.86 0.0 0.0 0.0 10.86" Properties=species:S:1:pos:R:3:initial_magmoms:R:1 pbc="T T T"
Si       1.17019758      -1.43919978      -1.25835906       0.00000000
Si       1.17019758       1.27580022       1.45664094       0.00000000
Si      -1.54480242      -1.43919978       1.45664094       0.00000000
Si      -0.35792388       2.49538908      -2.53569054       0.00000000
Si       2.52769758      -0.08169978      -2.61585906       0.00000000
Si       2.52769758       2.63330022       0.09914094       0.00000000
Si       2.52769758      -2.79669978       0.09914094       0.00000000
Si       2.52769758      -0.08169978       2.81414094       0.00000000
Si      -2.77542504       0.06766866      -2.63284410       0.00000000
Si      -0.18730242      -2.79669978      -2.61585906       0.00000000
