10
Lattice="10.86 0.0 0.0 0.0 10.86 0.0 0.0 0.0 10.86" Properties=species:S:1:pos:R:3:initial_magmoms:R:1 pbc="T T T"
Si       1.24244916       1.39994088       1.38371604       0.00000000
Si      -1.47255084      -1.31505912       1.38371604       0.00000000
Si      -1.47255084       1.39994088      -1.33128396       0.00000000
Si       2.47993530      -2.33549730      -0.02944146       0.00000000
Si       2.59994916       0.04244088       2.74121604       0.00000000
Si       2.59994916       2.75744088       0.02621604       0.00000000
Si       2.72906370       0.00963282      -2.65461840       0.00000000
Si      -0.11505084      -2.67255912       2.74121604       0.00000000
Si      -0.11505084       2.75744088      -2.68878396       0.00000000
Si      -3.00605886       0.11219466      -2.41518798       0.00000000
