10
Lattice="10.86 0.0 0.0 0.0 10.86 0.0 0.0 0.0 10.86" Properties=species:S:1:pos:R:3:initial_magmoms:R:1 pbc="T T T"
Si       1.53873168      -1.31270250      -1.31969634       0.00000000
Si      -1.51031106       1.47816546      -1.19258004       0.00000000
Si       1.20468894       1.47816546       1.52241996       0.00000000
Si      -1.51031106      -1.23683454       1.52241996       0.00000000
Si       2.45851938       0.13810662       2.81148024       0.00000000
Si       0.00250866      -2.83345002      -2.55536886       0.00000000
Si      -0.15281106       2.83566546      -2.55008004       0.00000000
Si       2.56218894       2.83566546       0.16491996       0.00000000
Si      -2.86781106       0.12066546      -2.55008004       0.00000000
Si      -2.86781106      -2.59433454       0.16491996       0.00000000
