10
Lattice="10.86 0.0 0.0 0.0 10.86 0.0 0.0 0.0 10.86" Properties=species:S:1:pos:R:3:initial_magmoms:R:1 pbc="T T T"
Si      -1.68887118      -0.97520628      -1.33273920       0.00000000
Si       1.36929396      -1.42905654       1.48307418       0.00000000
Si      -1.75909194       1.40645688       1.30523082       0.00000000
Si       2.54350974      -2.43849354       0.00670062       0.00000000
Si      -0.17149026      -2.43849354      -2.70829938       0.00000000
Si      -0.17149026      -2.43849354       2.72170062       0.00000000
Si       2.54350974       0.27650646       2.72170062       0.00000000
Si      -2.88649026      -2.43849354       0.00670062       0.00000000
Si      -2.88649026       0.27650646      -2.70829938       0.00000000
Si      -2.88649026       0.27650646       2.72170062       0.00000000
