10
Lattice="10.86 0.0 0.0 0.0 10.86 0.0 0.0 0.0 10.86" Properties=species:S:1:pos:R:3:initial_magmoms:R:1 pbc="T T T"
Si       1.44756198       1.18734552       1.12255476       0.00000000
Si      -1.26743802      -1.52765448       1.12255476       0.00000000
Si       1.44756198      -1.52765448      -1.59244524       0.00000000
Si      -0.10173648       2.66611914       2.39195844       0.00000000
Si      -0.14514390       2.38675650      -2.82897570       0.00000000
Si       2.80506198      -0.17015448       2.48005476       0.00000000
Si      -2.83982484      -0.01061022       2.51449182       0.00000000
Si       2.80506198       2.54484552      -0.23494524       0.00000000
Si       0.09006198      -2.88515448       2.48005476       0.00000000
Si      -2.62493802      -2.88515448      -0.23494524       0.00000000
