10
Lattice="10.86 0.0 0.0 0.0 10.86 0.0 0.0 0.0 10.86" Properties=species:S:1:pos:R:3:initial_magmoms:R:1 pbc="T T T"
Si       1.02408714       1.62586146       1.48094562       0.00000000
Si       1.17646380      -1.61766216      -1.40064678       0.00000000
Si      -1.69091286      -1.08913854       1.48094562       0.00000000
Si      -1.69091286       1.62586146      -1.23405438       0.00000000
Si       2.34508668      -0.07839834      -2.51780412       0.00000000
Si       1.02675870      -3.20773992       0.75750672       0.00000000
Si      -0.16465932      -2.30473092       2.83386270       0.00000000
Si       2.45049384       0.18705264       2.73427650       0.00000000
Si       2.38158714       2.98336146       0.12344562       0.00000000
Si      -0.53493102      -2.67419898      -2.69449632       0.00000000
