10
Lattice="10.86 0.0 0.0 0.0 10.86 0.0 0.0 0.0 10.86" Properties=species:S:1:pos:R:3:initial_magmoms:R:1 pbc="T T T"
Si      -1.17419406       1.27710342      -1.32467022       0.00000000
Si      -1.17419406      -1.43789658       1.39032978       0.00000000
Si       1.54080594       1.27710342       1.39032978       0.00000000
Si      -2.53169406       2.63460342       0.03282978       0.00000000
Si      -2.53169406      -0.08039658      -2.68217022       0.00000000
Si      -2.53169406      -0.08039658       2.74782978       0.00000000
Si       0.14207052       2.69482212      -2.60138268       0.00000000
Si      -2.53169406      -2.79539658       0.03282978       0.00000000
Si       0.18330594       2.63460342       2.74782978       0.00000000
Si       1.12133844      -3.15100728      -1.87180788       0.00000000
