10
Lattice="16.28999089631971 0.0 0.0 0.0 16.28999089631971 0.0 0.0 0.0 34.28971787722196" Properties=species:S:1:pos:R:3:initial_magmoms:R:1 pbc="T T T"
Si      -1.56547619      -1.24279342      -1.24775312       0.00000000
Si       1.35940050      -1.35737307       1.37906464       0.00000000
Si       1.74930165       1.03284953      -1.24006434       0.00000000
Si      -1.36540241       1.38894893       1.37032076       0.00000000
Si       0.39452751      -1.89774495      -2.29607992       0.00000000
Si       2.68304445       2.72902949       0.03886056       0.00000000
Si      -0.00717900      -2.69888715       2.75344188       0.00000000
Si       2.70630657       0.01734722       2.75200171       0.00000000
Si       2.83972167      -2.61706248      -0.11911912       0.00000000
Si      -2.72095847       0.01441828       2.74733831       0.00000000
