10
Lattice="16.28999089631971 0.0 0.0 0.0 16.28999089631971 0.0 0.0 0.0 34.28971787722196" Properties=species:S:1:pos:R:3:initial_magmoms:R:1 pbc="T T T"
Si      -0.93646323       2.19397697       0.18039831       0.00000000
Si      -1.88366157      -1.15140978       0.96446743       0.00000000
Si       1.62450396      -1.23127965      -1.43091073       0.00000000
Si       2.14410609       0.27679221       1.24200857       0.00000000
Si      -0.34547832      -0.00381186      -2.51539224       0.00000000
Si      -0.81520047       1.69859807       2.46498633       0.00000000
Si      -1.18868130      -0.62185446       3.11460539       0.00000000
Si      -2.71797673       0.10638708      -2.25269856       0.00000000
Si      -3.16709365       1.70532584      -0.51928378       0.00000000
Si       1.61657073      -3.34047627      -0.31035641       0.00000000
