10
Lattice="16.28999089631971 0.0 0.0 0.0 16.28999089631971 0.0 0.0 0.0 34.28971787722196" Properties=species:S:1:pos:R:3:initial_magmoms:R:1 pbc="T T T"
Si       1.35772263       1.35464382       1.35667345       0.00000000
Si      -1.35749457       1.35697329      -1.35708492       0.00000000
Si       1.35749457      -1.35795558      -1.35722208       0.00000000
Si      -1.35920502      -1.35927507       1.35691347       0.00000000
Si       2.71262709       0.00366525       2.71310686       0.00000000
Si      -2.71332756      -0.00053757      -2.71440987       0.00000000
Si       2.71362078      -0.00021177      -2.71495851       0.00000000
Si      -0.00048870       2.71435383      -2.71454703       0.00000000
Si      -2.71456560       2.71446786       0.00044577       0.00000000
Si       2.71463076       2.71445157      -0.00006858       0.00000000
