10
Lattice="16.28999089631971 0.0 0.0 0.0 16.28999089631971 0.0 0.0 0.0 34.28971787722196" Properties=species:S:1:pos:R:3:initial_magmoms:R:1 pbc="T T T"
Si       1.72809207       1.60466274       0.36796317       0.00000000
Si      -2.36444463       0.55672704      -0.09446823       0.00000000
Si      -0.09037692      -0.67901607      -2.34178330       0.00000000
Si       0.49539519      -1.38025170       2.04401122       0.00000000
Si       1.52829522      -2.37120661      -2.45442509       0.00000000
Si      -0.41656788      -3.48353342       1.29543198       0.00000000
Si       1.04225049       2.93961195       2.16944308       0.00000000
Si      -3.49713720      -1.56634866       0.23382172       0.00000000
Si       2.40150438       2.59147836      -1.68338606       0.00000000
Si      -2.91333618       2.42633034       1.24159709       0.00000000
