10
Lattice="16.28999089631971 0.0 0.0 0.0 16.28999089631971 0.0 0.0 0.0 34.28971787722196" Properties=species:S:1:pos:R:3:initial_magmoms:R:1 pbc="T T T"
Si      -1.99547191       0.98774415       0.78670944       0.00000000
Si       0.49958661      -1.62749513       1.66024049       0.00000000
Si       1.67133282       1.68985944       0.29146276       0.00000000
Si       0.32073544      -0.41368618      -2.37377563       0.00000000
Si       0.05046968      -0.02855637       3.39365527       0.00000000
Si       0.83398773       3.09827655      -1.56457212       0.00000000
Si      -3.31434289      -0.88256125       1.18711070       0.00000000
Si       2.57914194      -1.17675865      -2.26857471       0.00000000
Si       2.87208501      -1.73769407       1.39754681       0.00000000
Si      -1.38795265       1.82518047       2.90958706       0.00000000
