10
Lattice="16.28999089631971 0.0 0.0 0.0 16.28999089631971 0.0 0.0 0.0 34.28971787722196" Properties=species:S:1:pos:R:3:initial_magmoms:R:1 pbc="T T T"
Si      -1.22702796      -1.07864235       1.74709639       0.00000000
Si       1.98228123       1.29516903       0.59626424       0.00000000
Si      -1.84870323       1.61218872       0.01134990       0.00000000
Si       0.27769563      -1.00963791      -2.30396172       0.00000000
Si      -1.57369545       0.66520215      -2.58482896       0.00000000
Si       0.44080740      -0.88974351       3.40606816       0.00000000
Si      -2.87433792       0.58893237       2.03190695       0.00000000
Si       2.62619235      -1.17530721       2.48700034       0.00000000
Si       2.44960875       2.83305906      -1.10838146       0.00000000
Si      -0.76344714       3.84888717      -0.00901820       0.00000000
