10
Lattice="16.28999089631971 0.0 0.0 0.0 16.28999089631971 0.0 0.0 0.0 34.28971787722196" Properties=species:S:1:pos:R:3:initial_magmoms:R:1 pbc="T T T"
Si       1.29000510      -1.32949206      -1.41288804       0.00000000
Si      -1.34434854      -1.36391283       1.34549156       0.00000000
Si       1.37137365       1.34819298       1.34621165       0.00000000
Si      -1.38357486       1.29878541      -1.40288572       0.00000000
Si       2.11971996       0.64096263      -2.61473955       0.00000000
Si      -2.22213519      -0.52186644      -2.65043140       0.00000000
Si      -0.46178892      -2.23720344      -2.74810095       0.00000000
Si       0.27223848       2.29899141      -2.74810095       0.00000000
Si      -2.70360243      -0.00762372       2.70336515       0.00000000
Si       0.01202202       2.70756090       2.70377663       0.00000000
