10
Lattice="16.28999089631971 0.0 0.0 0.0 16.28999089631971 0.0 0.0 0.0 34.28971787722196" Properties=species:S:1:pos:R:3:initial_magmoms:R:1 pbc="T T T"
Si      -1.59114204      -1.13748183      -1.25279303       0.00000000
Si       1.31170338      -1.33944525       1.40876299       0.00000000
Si       1.79975178       0.87801471      -1.22449954       0.00000000
Si      -1.39593897       1.40033727       1.38516136       0.00000000
Si       0.91914696       1.20246264      -3.32811871       0.00000000
Si       2.58996339      -2.73877254      -0.04056133       0.00000000
Si       2.63831211       2.69866656       0.02304613       0.00000000
Si       2.67753843       0.03596832       2.77142342       0.00000000
Si      -0.03824892      -2.67871131       2.77313791       0.00000000
Si      -2.81767804      -2.64116286       0.01892793       0.00000000
