10
Lattice="16.28999089631971 0.0 0.0 0.0 16.28999089631971 0.0 0.0 0.0 34.28971787722196" Properties=species:S:1:pos:R:3:initial_magmoms:R:1 pbc="T T T"
Si      -0.88060482       0.32444793      -2.10361917       0.00000000
Si      -1.79975178      -0.87801471       1.22449954       0.00000000
Si       0.83856033       1.82065185       1.24754567       0.00000000
Si       1.76034627      -1.71533700      -0.09766955       0.00000000
Si       0.71796546       2.35450773      -2.41112953       0.00000000
Si      -0.48804840      -2.21745996       2.63326253       0.00000000
Si       2.22213519       0.52186644       2.65043140       0.00000000
Si       2.49437367       2.82085785      -0.09766955       0.00000000
Si       3.51214029      -0.80762562       1.23754336       0.00000000
Si      -2.69166186       1.88863002      -1.97078073       0.00000000
