10
Lattice="16.28999089631971 0.0 0.0 0.0 16.28999089631971 0.0 0.0 0.0 34.28971787722196" Properties=species:S:1:pos:R:3:initial_magmoms:R:1 pbc="T T T"
Si      -1.82785203       1.41592680      -0.50745382       0.00000000
Si      -0.45841689      -2.20625244       0.84301319       0.00000000
Si       1.27892790       1.14332994       1.70841757       0.00000000
Si       1.11913929      -0.25207146      -2.19824646       0.00000000
Si      -0.70591086       3.27821589      -1.38715702       0.00000000
Si       2.41737084      -2.15412444      -1.71781296       0.00000000
Si       1.42454421      -3.40617384       0.03596993       0.00000000
Si       2.68713324       2.68337025       0.59478978       0.00000000
Si      -2.39801832      -3.14414919      -0.07135694       0.00000000
Si      -0.14213025       2.65113234       2.94181941       0.00000000
