10
Lattice="16.28999089631971 0.0 0.0 0.0 16.28999089631971 0.0 0.0 0.0 34.28971787722196" Properties=species:S:1:pos:R:3:initial_magmoms:R:1 pbc="T T T"
Si      -1.38561111      -1.84494024      -0.52857630       0.00000000
Si      -1.07388567       2.09419353      -0.72258763       0.00000000
Si      -0.50199264       0.25687701       2.41787223       0.00000000
Si       2.49784344      -0.17032824      -1.04364244       0.00000000
Si      -1.78448805      -0.86988600      -2.82883473       0.00000000
Si       2.93055471      -1.69961715       0.75533433       0.00000000
Si       0.97867062       3.31645245      -1.01195872       0.00000000
Si      -3.04781013      -1.75394430       1.44270640       0.00000000
Si      -2.23660071       1.82236230       2.48988068       0.00000000
Si       0.06589305      -3.81637233      -0.48307382       0.00000000
