10
Lattice="16.28999089631971 0.0 0.0 0.0 16.28999089631971 0.0 0.0 0.0 34.28971787722196" Properties=species:S:1:pos:R:3:initial_magmoms:R:1 pbc="T T T"
Si      -1.65491739       1.49175675      -0.78694947       0.00000000
Si      -1.40820534      -1.54004031       1.11362779       0.00000000
Si       0.81233343       1.56874329       1.57924813       0.00000000
Si       1.36203948      -0.80591517      -1.80508034       0.00000000
Si      -2.82926349      -0.03223791       2.34702963       0.00000000
Si      -2.82133026       2.07695871       1.22647531       0.00000000
Si       2.58146001       0.97062336      -2.62751968       0.00000000
Si      -0.60393546       3.30884109      -1.80024548       0.00000000
Si      -2.68713324      -2.68337025      -0.59478978       0.00000000
Si       1.50491907       0.51992793       3.52752241       0.00000000
