10
Lattice="16.28999089631971 0.0 0.0 0.0 16.28999089631971 0.0 0.0 0.0 34.28971787722196" Properties=species:S:1:pos:R:3:initial_magmoms:R:1 pbc="T T T"
Si       2.07933705      -1.04513382      -0.27119753       0.00000000
Si       0.26766099       2.04599142       1.11331918       0.00000000
Si      -1.26806247      -1.20917412       1.57722503       0.00000000
Si      -0.64158165      -0.11945457      -2.29833820       0.00000000
Si      -0.11404629       3.49781391      -0.74597323       0.00000000
Si      -0.25572042      -3.36992859       1.35602194       0.00000000
Si      -1.60640577       2.10703005       2.52447902       0.00000000
Si      -2.70669753      -1.16699931      -2.23514222       0.00000000
Si       2.26527111       1.77380181       2.43933760       0.00000000
Si       1.84482621      -2.85850404      -1.76965904       0.00000000
