10
Lattice="16.28999089631971 0.0 0.0 0.0 16.28999089631971 0.0 0.0 0.0 34.28971787722196" Properties=species:S:1:pos:R:3:initial_magmoms:R:1 pbc="T T T"
Si      -1.25128377       1.36111095      -1.43620506       0.00000000
Si      -1.35703845      -1.33404349       1.36660375       0.00000000
Si       1.35654975       1.37775933       1.36279759       0.00000000
Si       1.39217598      -1.31115278      -1.44901571       0.00000000
Si       0.68875749       2.23656813      -2.81854236       0.00000000
Si       2.40375240       0.42710751      -2.74293349       0.00000000
Si       2.70747945      -2.69628258      -0.00498573       0.00000000
Si      -2.72717406      -2.68153667      -0.00016459       0.00000000
Si      -0.00022806      -2.69503411       2.72482024       0.00000000
Si       2.71394658       0.02029734       2.72372297       0.00000000
