10
Lattice="16.28999089631971 0.0 0.0 0.0 16.28999089631971 0.0 0.0 0.0 34.28971787722196" Properties=species:S:1:pos:R:3:initial_magmoms:R:1 pbc="T T T"
Si       1.33055091      -1.37907719      -1.29639209       0.00000000
Si       0.05680323       2.15490636      -0.90641491       0.00000000
Si       0.38178873      -0.21742263       2.29761812       0.00000000
Si      -2.04509547      -1.10224819      -0.41164829       0.00000000
Si       1.09887453      -3.22176194       0.20323527       0.00000000
Si      -3.66376761       0.58994235      -0.29900651       0.00000000
Si       0.21851406       1.92885003       3.18308200       0.00000000
Si      -1.12374936       1.98778725      -2.94806014       0.00000000
Si      -2.44020942      -2.52984419       1.48131664       0.00000000
Si       0.59311890      -1.17817099      -3.63135173       0.00000000
