10
Lattice="16.28999089631971 0.0 0.0 0.0 16.28999089631971 0.0 0.0 0.0 34.28971787722196" Properties=species:S:1:pos:R:3:initial_magmoms:R:1 pbc="T T T"
Si      -0.17516637      -1.32605487      -1.90788097       0.00000000
Si      -1.96700121       1.29298617      -0.14514846       0.00000000
Si       1.68384843       1.65025845      -0.12378595       0.00000000
Si      -0.18598293      -1.21414257       2.03609030       0.00000000
Si       1.77510501       1.79356158       2.33345090       0.00000000
Si      -2.35913409      -2.13280083      -1.41431449       0.00000000
Si      -0.65823003       0.31455990      -3.49906193       0.00000000
Si      -3.58782363      -0.42727041      -0.14850885       0.00000000
Si       0.26472879       0.47561913       3.61907601       0.00000000
Si       3.49863588       0.39980547      -1.17308619       0.00000000
