10
Lattice="16.28999089631971 0.0 0.0 0.0 16.28999089631971 0.0 0.0 0.0 34.28971787722196" Properties=species:S:1:pos:R:3:initial_magmoms:R:1 pbc="T T T"
Si      -1.74619026      -1.06466553      -1.07004553       0.00000000
Si       1.73775204       1.05850791      -1.11057600       0.00000000
Si       0.75364056      -1.01996577       1.94751990       0.00000000
Si      -1.21298598       1.68389730       1.10711274       0.00000000
Si      -2.19253626      -2.40044553       0.90418608       0.00000000
Si      -2.79006975       0.90559368      -1.90188026       0.00000000
Si      -1.25177247      -1.63688436       2.95635826       0.00000000
Si      -0.03624525       3.59033229       0.53680583       0.00000000
Si       2.18624832       2.89018809       0.35194986       0.00000000
Si       3.46561605      -0.50990958      -1.15528982       0.00000000
