10
Lattice="16.28999089631971 0.0 0.0 0.0 16.28999089631971 0.0 0.0 0.0 34.28971787722196" Properties=species:S:1:pos:R:3:initial_magmoms:R:1 pbc="T T T"
Si       1.35334062      -1.35816246      -1.35722208       0.00000000
Si      -1.35583299       1.35772263      -1.35849080       0.00000000
Si       1.35664749       1.35783666       1.35783930       0.00000000
Si      -1.35830907      -1.35770634       1.35780501       0.00000000
Si      -0.01148445       2.72163546      -2.70398236       0.00000000
Si       2.71318095       2.71406061       0.00065151       0.00000000
Si       2.71404432      -2.71370223      -0.00072008       0.00000000
Si      -2.71508688       2.71401174      -0.00061722       0.00000000
Si       2.71450044      -0.00055386       2.71488993       0.00000000
Si      -0.00079821       2.71498914       2.71499280       0.00000000
