10
Lattice="16.28999089631971 0.0 0.0 0.0 16.28999089631971 0.0 0.0 0.0 34.28971787722196" Properties=species:S:1:pos:R:3:initial_magmoms:R:1 pbc="T T T"
Si       1.34407161       1.35228177       1.38388921       0.00000000
Si      -1.36506942      -1.36607940       1.38371776       0.00000000
Si      -1.45316574       1.35075051      -1.39277025       0.00000000
Si       1.41040449      -1.40108661      -1.49239223       0.00000000
Si      -0.61672311      -2.07330975      -2.57723344       0.00000000
Si      -2.46420459      -0.41528097      -2.71059484       0.00000000
Si       2.69734707       2.70628681       0.01260834       0.00000000
Si       2.69615790      -2.73344571       0.01724774       0.00000000
Si       2.70425403      -0.00490329       2.74124845       0.00000000
Si      -0.01036044       2.70753528       2.74241430       0.00000000
