10
Lattice="16.28999089631971 0.0 0.0 0.0 16.28999089631971 0.0 0.0 0.0 34.28971787722196" Properties=species:S:1:pos:R:3:initial_magmoms:R:1 pbc="T T T"
Si       1.35773892       1.35585624      -1.35735924       0.00000000
Si       1.35716877      -1.35739683       1.35674203       0.00000000
Si      -1.35734796       1.35751682       1.35715350       0.00000000
Si      -1.35632169      -1.35839052      -1.35849080       0.00000000
Si       2.71355562      -0.00087966       2.71344976       0.00000000
Si      -0.00140094       2.71449785       2.71334689       0.00000000
Si       2.71217097       0.00060273      -2.71588433       0.00000000
Si       2.71445157       2.71454184      -0.00075437       0.00000000
Si      -2.71552671      -0.00120546       2.71392982       0.00000000
Si       0.00040725      -2.71634121       2.71324402       0.00000000
