10
Lattice="16.28999089631971 0.0 0.0 0.0 16.28999089631971 0.0 0.0 0.0 34.28971787722196" Properties=species:S:1:pos:R:3:initial_magmoms:R:1 pbc="T T T"
Si      -2.06294931       1.14062973       0.10369216       0.00000000
Si       0.94956039       0.13144401       2.18922826       0.00000000
Si      -0.54377649      -2.34615096       0.07200845       0.00000000
Si       1.59241266       1.06979918      -1.59574149       0.00000000
Si      -1.85813514      -0.16933455      -2.25098408       0.00000000
Si      -0.02564046       0.82396826      -3.29627242       0.00000000
Si      -1.66791681       2.23888687       2.11252212       0.00000000
Si       0.33342372       3.45241205       1.68160299       0.00000000
Si       2.13078087       2.10764322       2.44530402       0.00000000
Si       3.48931800      -0.49536261      -1.60253086       0.00000000
