10
Lattice="16.28999089631971 0.0 0.0 0.0 16.28999089631971 0.0 0.0 0.0 34.28971787722196" Properties=species:S:1:pos:R:3:initial_magmoms:R:1 pbc="T T T"
Si       1.18122048       1.97619921       0.25607576       0.00000000
Si       1.48133115      -1.67461200       0.69872197       0.00000000
Si      -1.70406432       0.66360573       1.52599617       0.00000000
Si      -0.94956039      -0.13144401      -2.18922826       0.00000000
Si      -2.61747720       2.10744286      -0.07670614       0.00000000
Si      -0.61613667       3.32096804      -0.50762527       0.00000000
Si      -1.49333688      -2.47759497      -2.11721981       0.00000000
Si       3.07809324      -1.55378907      -1.22633816       0.00000000
Si       1.91865249       1.77529302       2.59103540       0.00000000
Si       0.26191062      -3.45115053       1.52116131       0.00000000
