10
Lattice="16.28999089631971 0.0 0.0 0.0 16.28999089631971 0.0 0.0 0.0 34.28971787722196" Properties=species:S:1:pos:R:3:initial_magmoms:R:1 pbc="T T T"
Si       0.39861630      -1.35615879      -1.83110625       0.00000000
Si      -1.91889684       0.01027899       1.38239075       0.00000000
Si      -0.39082968       2.13167682      -1.12665789       0.00000000
Si       2.07734967      -0.52015599       1.41959511       0.00000000
Si      -0.77812443      -3.26259378      -1.26079934       0.00000000
Si       0.03578913       3.62265199       0.63473732       0.00000000
Si      -0.14248863       0.47662911       3.69585073       0.00000000
Si       2.62110987      -2.05630299      -2.01596222       0.00000000
Si      -3.91417749       0.35145675       0.05685238       0.00000000
Si      -0.57676374      -0.68725881      -3.83719302       0.00000000
