10
Lattice="16.28999089631971 0.0 0.0 0.0 16.28999089631971 0.0 0.0 0.0 34.28971787722196" Properties=species:S:1:pos:R:3:initial_magmoms:R:1 pbc="T T T"
Si       1.35836964      -1.35625130       1.36346281       0.00000000
Si      -1.35902583       1.35798001       1.36260557       0.00000000
Si      -1.36549296      -1.35859991      -1.36610312       0.00000000
Si       1.35555606       1.37453065      -1.37701755       0.00000000
Si       2.71377946      -2.71330542       0.00610357       0.00000000
Si       2.71371919       2.71461121       0.00267460       0.00000000
Si      -2.71876842      -2.71260495       0.00517775       0.00000000
Si      -2.71642266       2.71544200       0.00168020       0.00000000
Si      -0.00074934      -2.71371267       2.72006768       0.00000000
Si       2.71448645       0.00135370       2.72010197       0.00000000
