10
Lattice="16.28999089631971 0.0 0.0 0.0 16.28999089631971 0.0 0.0 0.0 34.28971787722196" Properties=species:S:1:pos:R:3:initial_magmoms:R:1 pbc="T T T"
Si       1.35221661      -1.35951616      -1.36212551       0.00000000
Si      -1.36166481       1.35540945      -1.36226267       0.00000000
Si       1.34464176       1.34519562       1.39360349       0.00000000
Si      -1.36816452      -1.36518997       1.39418642       0.00000000
Si       2.70762724      -2.71343097       0.00092582       0.00000000
Si       2.71111993       2.71479366       0.00116585       0.00000000
Si       2.71080242      -0.00104256      -2.71804459       0.00000000
Si      -2.71735119       2.71202436      -0.00054864       0.00000000
Si      -2.71536381      -2.71538921      -0.00092582       0.00000000
Si      -0.00377928       2.71379997      -2.71821603       0.00000000
