10
Lattice="16.28999089631971 0.0 0.0 0.0 16.28999089631971 0.0 0.0 0.0 34.28971787722196" Properties=species:S:1:pos:R:3:initial_magmoms:R:1 pbc="T T T"
Si      -1.31887098      -1.87030540       0.40040126       0.00000000
Si      -0.90776025       1.59001803      -1.43931171       0.00000000
Si       1.99547191      -0.98774415      -0.78670944       0.00000000
Si       0.60751926       0.83743632       2.12287762       0.00000000
Si       2.04594159      -1.01630052       2.60694584       0.00000000
Si       2.49505852      -2.61523928       0.87353105       0.00000000
Si       0.74363850       3.24578250      -1.73026013       0.00000000
Si       3.66680474       0.70211529      -0.49524667       0.00000000
Si       1.89732955       2.78436825       1.85829801       0.00000000
Si      -2.70212004       2.73139317      -0.36995197       0.00000000
