10
Lattice="16.28999089631971 0.0 0.0 0.0 16.28999089631971 0.0 0.0 0.0 34.28971787722196" Properties=species:S:1:pos:R:3:initial_magmoms:R:1 pbc="T T T"
Si      -1.28024739      -2.00427273       0.11960260       0.00000000
Si      -1.64305827       1.70365707      -0.27812406       0.00000000
Si       1.67739759      -0.30221208      -1.72926573       0.00000000
Si       0.68349582       0.52225740       2.28640538       0.00000000
Si      -1.71877419      -2.17834767       2.42743906       0.00000000
Si      -3.65449860       0.55894248       0.36096806       0.00000000
Si       0.29442546      -1.50107463       3.45280507       0.00000000
Si      -1.19234655       3.39341877       1.30486165       0.00000000
Si       2.97514437       0.93346587       2.23545083       0.00000000
Si      -3.49122393      -1.58733018      -0.52449582       0.00000000
