10
Lattice="16.28999089631971 0.0 0.0 0.0 16.28999089631971 0.0 0.0 0.0 34.28971787722196" Properties=species:S:1:pos:R:3:initial_magmoms:R:1 pbc="T T T"
Si      -1.35752715      -1.35666378      -1.35591907       0.00000000
Si       1.35788553       1.35839052      -1.35595336       0.00000000
Si      -1.35568638       1.35661491       1.36171404       0.00000000
Si       1.36166481      -1.35540945       1.36226267       0.00000000
Si      -0.00037467      -2.71430333      -2.71368979       0.00000000
Si      -2.71445157       0.00039096      -2.71375837       0.00000000
Si       2.71388142      -2.71492561       0.00013716       0.00000000
Si       0.00039096       2.71580364      -2.71344976       0.00000000
Si       2.71546155       0.00114030      -2.71386124       0.00000000
Si      -2.71622718      -2.71434731       0.00041148       0.00000000
