10
Lattice="16.28999089631971 0.0 0.0 0.0 16.28999089631971 0.0 0.0 0.0 34.28971787722196" Properties=species:S:1:pos:R:3:initial_magmoms:R:1 pbc="T T T"
Si       0.98210781       0.58083624      -2.07199165       0.00000000
Si      -2.10501009      -0.19355778       1.16070760       0.00000000
Si       1.82381211      -1.31978322       1.39158040       0.00000000
Si       0.17241336      -2.97554769       1.68252882       0.00000000
Si      -2.30764140      -1.27237932      -2.25623041       0.00000000
Si      -1.67327622       3.09562128      -0.40396739       0.00000000
Si      -1.05772599      -3.49782138      -0.22689519       0.00000000
Si      -1.62194643      -1.83417255       2.75188856       0.00000000
Si       2.66129795       2.28105612      -1.55027330       0.00000000
Si      -3.56537601      -1.43531190      -0.15053195       0.00000000
