10
Lattice="16.28999089631971 0.0 0.0 0.0 16.28999089631971 0.0 0.0 0.0 34.28971787722196" Properties=species:S:1:pos:R:3:initial_magmoms:R:1 pbc="T T T"
Si       1.08608918      -2.00270889      -0.28539348       0.00000000
Si      -2.16961623       0.60610203      -0.48907452       0.00000000
Si       0.60531915       0.45473535       2.19714919       0.00000000
Si       0.86069911       1.69241697      -1.36205693       0.00000000
Si      -1.86158862       2.63915919       0.71322653       0.00000000
Si       2.55541949       1.57900599       1.55843426       0.00000000
Si       0.47956198      -2.46053934      -2.50215640       0.00000000
Si      -0.93887415       2.08350729       2.80215731       0.00000000
Si       3.09725747       1.73701899      -0.74439590       0.00000000
Si       0.48749847      -3.17179332       1.72713976       0.00000000
