10
Lattice="16.28999089631971 0.0 0.0 0.0 16.28999089631971 0.0 0.0 0.0 34.28971787722196" Properties=species:S:1:pos:R:3:initial_magmoms:R:1 pbc="T T T"
Si       2.29164855       0.41120847      -0.05095455       0.00000000
Si      -0.38907036      -2.02333203       1.16639970       0.00000000
Si      -1.25988489       1.70917938       1.08722469       0.00000000
Si      -0.68349582      -0.52225740      -2.28640538       0.00000000
Si       1.39088907      -3.27339568       0.21767125       0.00000000
Si      -1.87584237       2.87116137      -0.98154372       0.00000000
Si       3.07575141      -1.70140905       0.61992416       0.00000000
Si      -2.40227001      -2.70060507       0.14103369       0.00000000
Si      -2.32655409       1.18139967      -2.56452943       0.00000000
Si      -3.18822993       0.52826841       1.91600764       0.00000000
