10
Lattice="16.28999089631971 0.0 0.0 0.0 16.28999089631971 0.0 0.0 0.0 34.28971787722196" Properties=species:S:1:pos:R:3:initial_magmoms:R:1 pbc="T T T"
Si      -1.77517017       0.18075384       1.48951189       0.00000000
Si      -0.81694350       0.58758030      -2.11180204       0.00000000
Si       1.22518134       2.10494493       0.30970490       0.00000000
Si       0.88542731      -2.32067340       0.25257820       0.00000000
Si       1.33501015      -1.96486722       2.65004804       0.00000000
Si      -0.52499412      -0.58697757       3.54192410       0.00000000
Si       0.89248768       1.62500895      -3.35576512       0.00000000
Si       2.07166350       1.84148676       2.69788222       0.00000000
Si       3.02431085      -0.32314473       2.43642298       0.00000000
Si      -3.14859636       2.18427723       0.84095580       0.00000000
