10
Lattice="16.28999089631971 0.0 0.0 0.0 16.28999089631971 0.0 0.0 0.0 34.28971787722196" Properties=species:S:1:pos:R:3:initial_magmoms:R:1 pbc="T T T"
Si       1.77517017      -0.18075384      -1.48951189       0.00000000
Si      -1.67397669      -1.68686208      -0.09062777       0.00000000
Si      -1.37342619       2.00352339      -0.64855609       0.00000000
Si       1.25017605      -0.76773141       2.05241221       0.00000000
Si       1.91536191       1.51123959       2.53058259       0.00000000
Si      -2.46238011      -1.56235761       2.16515687       0.00000000
Si      -2.97018828       1.88270046       1.27650404       0.00000000
Si       0.95822667       0.40682646      -3.60131392       0.00000000
Si       3.00035151       1.92419109      -1.17980698       0.00000000
Si      -0.17018163       3.82881789       0.25549283       0.00000000
