10
Lattice="16.28999089631971 0.0 0.0 0.0 16.28999089631971 0.0 0.0 0.0 34.28971787722196" Properties=species:S:1:pos:R:3:initial_magmoms:R:1 pbc="T T T"
Si      -2.02028580      -0.25749603       1.30907929       0.00000000
Si       1.15024734      -2.16212283      -0.12622052       0.00000000
Si       1.54557632       1.45419757       1.32828154       0.00000000
Si      -0.73697589       1.29087891      -2.02892374       0.00000000
Si      -3.19106439       1.67681671       0.62856517       0.00000000
Si      -2.05846956       2.98876607      -0.98336108       0.00000000
Si       2.50532774      -1.86197958      -2.19152567       0.00000000
Si      -3.22353036      -2.08279053       0.40503037       0.00000000
Si       1.99672950      -2.42558100       2.26195679       0.00000000
Si       1.88275163       3.52736234       0.26629410       0.00000000
