10
Lattice="16.28999089631971 0.0 0.0 0.0 16.28999089631971 0.0 0.0 0.0 34.28971787722196" Properties=species:S:1:pos:R:3:initial_magmoms:R:1 pbc="T T T"
Si      -1.46880414       1.36727240      -1.24814643       0.00000000
Si       0.64589850      -1.80323784      -1.39236906       0.00000000
Si       1.79462043       1.51305871       0.38867417       0.00000000
Si      -0.85310730      -0.75878820       2.15641298       0.00000000
Si      -1.74881295      -2.89763262       1.48529425       0.00000000
Si      -1.84805163       3.20333795       0.16181327       0.00000000
Si       2.43488978      -0.92105289      -2.70686613       0.00000000
Si       1.76036256      -3.32377902       0.02410569       0.00000000
Si      -1.40908500      -2.58585831      -2.42898210       0.00000000
Si       1.50658065       2.45647240       2.54628729       0.00000000
