10
Lattice="16.28999089631971 0.0 0.0 0.0 16.28999089631971 0.0 0.0 0.0 34.28971787722196" Properties=species:S:1:pos:R:3:initial_magmoms:R:1 pbc="T T T"
Si       1.35437538       1.32781419       1.36140543       0.00000000
Si       1.35355273      -1.35793440      -1.35657058       0.00000000
Si      -1.37486981      -1.34167698       1.35403314       0.00000000
Si      -1.36139798       1.35475785      -1.35715350       0.00000000
Si       0.00696946       2.63176353       2.75257435       0.00000000
Si       2.56363583      -0.15558579       2.83929310       0.00000000
Si       2.71210289      -0.00026064      -2.71372408       0.00000000
Si      -0.00296400       2.71456560      -2.71379266       0.00000000
Si      -0.00284544      -2.71559187      -2.71341547       0.00000000
Si       2.71552379       2.71531494       0.00085724       0.00000000
