10
Lattice="16.28999089631971 0.0 0.0 0.0 16.28999089631971 0.0 0.0 0.0 34.28971787722196" Properties=species:S:1:pos:R:3:initial_magmoms:R:1 pbc="T T T"
Si       2.23655836       0.04460202       0.61766103       0.00000000
Si      -0.43345735       0.79153110      -2.14530311       0.00000000
Si      -0.86069911      -1.69241697       1.36205693       0.00000000
Si      -1.02017821       1.96092504       0.83564089       0.00000000
Si      -3.03031534      -1.08631494       0.87298242       0.00000000
Si       2.48602342       2.24301897      -0.11932828       0.00000000
Si       1.69472038      -0.11341098       2.92049119       0.00000000
Si       1.21041868       2.51572986      -2.02851226       0.00000000
Si       0.39545278      -1.02975606      -3.36876093       0.00000000
Si      -2.72228773       0.94674222       2.07528347       0.00000000
