10
Lattice="16.28999089631971 0.0 0.0 0.0 16.28999089631971 0.0 0.0 0.0 34.28971787722196" Properties=species:S:1:pos:R:3:initial_magmoms:R:1 pbc="T T T"
Si      -1.95010033      -1.12427064       0.63871493       0.00000000
Si      -0.13458798       2.30848848       0.38092469       0.00000000
Si       1.52059005      -1.08936117       1.41938938       0.00000000
Si       0.54183798       0.15801300      -2.30283016       0.00000000
Si       3.24228015       0.15350067       0.55134468       0.00000000
Si       2.22993810       2.31425514       0.77254778       0.00000000
Si      -1.69472038       0.11341098      -2.92049119       0.00000000
Si      -2.55541949      -1.57900599      -1.55843426       0.00000000
Si       0.97871949      -3.28986324       0.81897608       0.00000000
Si      -2.11104716       2.34768222       1.65619430       0.00000000
