10
Lattice="10.86 0.0 0.0 0.0 10.86 0.0 0.0 0.0 10.86" Properties=species:S:1:pos:R:3:initial_magmoms:R:1 pbc="T T T"
Si      -1.18001502       1.30742454      -1.28241396       0.00000000
Si       1.53498498      -1.40757546      -1.28241396       0.00000000
Si       1.53498498       1.30742454       1.43258604       0.00000000
Si      -2.27970948       2.69423568      -0.00137922       0.00000000
Si      -2.53751502      -0.05007546      -2.63991396       0.00000000
Si       0.17748498       2.66492454      -2.63991396       0.00000000
Si      -2.67503520      -2.73302760      -0.04409160       0.00000000
Si       0.17748498      -2.76507546      -2.63991396       0.00000000
Si       0.07882188       2.54413962       2.94766464       0.00000000
Si       2.89248498      -0.05007546      -2.63991396       0.00000000
