10
Lattice="10.86 0.0 0.0 0.0 10.86 0.0 0.0 0.0 10.86" Properties=species:S:1:pos:R:3:initial_magmoms:R:1 pbc="T T T"
Si       1.21338780       1.43670198       1.16747172       0.00000000
Si      -1.50161220      -1.27829802       1.16747172       0.00000000
Si       1.21338780      -1.27829802      -1.54752828       0.00000000
Si       2.57088780       0.07920198       2.52497172       0.00000000
Si      -0.14411220      -2.63579802       2.52497172       0.00000000
Si       2.57088780      -2.63579802      -0.19002828       0.00000000
Si      -0.14411220       2.79420198       2.52497172       0.00000000
Si       2.57088780       2.79420198      -0.19002828       0.00000000
Si      -2.85911220       0.07920198       2.52497172       0.00000000
Si      -0.24277530       2.67341706      -2.74744968       0.00000000
