10
Lattice="10.86 0.0 0.0 0.0 10.86 0.0 0.0 0.0 10.86" Properties=species:S:1:pos:R:3:initial_magmoms:R:1 pbc="T T T"
Si      -1.21997982       1.32545214      -1.23832236       0.00000000
Si      -1.21997982      -1.38954786       1.47667764       0.00000000
Si       1.49502018      -1.38954786      -1.23832236       0.00000000
Si      -2.57747982      -0.03204786      -2.59582236       0.00000000
Si       0.13752018       2.68295214      -2.59582236       0.00000000
Si      -2.74350750       2.57771874       0.10425600       0.00000000
Si      -2.57747982      -2.74704786       0.11917764       0.00000000
Si       0.13752018      -2.74704786      -2.59582236       0.00000000
Si       2.67503520       2.73302760       0.04409160       0.00000000
Si      -2.69042382      -0.14106054       2.75270592       0.00000000
