10
Lattice="10.86 0.0 0.0 0.0 10.86 0.0 0.0 0.0 10.86" Properties=species:S:1:pos:R:3:initial_magmoms:R:1 pbc="T T T"
Si       1.35750000       1.35750000       1.35750000       0.00000000
Si       1.35750000      -1.35750000      -1.35750000       0.00000000
Si      -1.35750000       1.35750000      -1.35750000       0.00000000
Si      -1.35750000      -1.35750000       1.35750000       0.00000000
Si       0.14223342       2.61640206       2.59494270       0.00000000
Si      -0.04185444       2.60736654      -2.71696566       0.00000000
Si       2.72537130      -0.06044676       2.59912380       0.00000000
Si       2.76321840      -0.07579194      -2.56111380       0.00000000
Si      -0.07510776      -2.66770470       2.67449220       0.00000000
Si      -2.71862724       0.09083304      -2.62940148       0.00000000
