10
Lattice="10.86 0.0 0.0 0.0 10.86 0.0 0.0 0.0 10.86" Properties=species:S:1:pos:R:3:initial_magmoms:R:1 pbc="T T T"
Si       1.34712870      -1.29705324      -1.24162380       0.00000000
Si      -1.36787130       1.41794676      -1.24162380       0.00000000
Si       1.34712870       1.41794676       1.47337620       0.00000000
Si      -0.01037130      -2.65455324      -2.59912380       0.00000000
Si      -2.58313788       2.67684882      -0.00418110       0.00000000
Si       2.70462870       0.06044676      -2.59912380       0.00000000
Si      -2.72537130       0.06044676      -2.59912380       0.00000000
Si       2.70462870      -2.65455324       0.11587620       0.00000000
Si      -0.01037130       2.77544676      -2.59912380       0.00000000
Si      -2.80047906      -2.60725794       0.07536840       0.00000000
