10
Lattice="10.86 0.0 0.0 0.0 10.86 0.0 0.0 0.0 10.86" Properties=species:S:1:pos:R:3:initial_magmoms:R:1 pbc="T T T"
Si      -1.31564556      -1.24986654       1.35946566       0.00000000
Si      -1.31564556       1.46513346      -1.35553434       0.00000000
Si       1.39935444       1.46513346       1.35946566       0.00000000
Si       2.56855290       0.01834254      -2.52576450       0.00000000
Si      -2.67677280      -2.51653350       0.08756418       0.00000000
Si       0.04185444      -2.60736654       2.71696566       0.00000000
Si      -2.67314556       0.10763346       2.71696566       0.00000000
Si       2.75685444       0.10763346       2.71696566       0.00000000
Si      -2.60915844      -0.03373116      -2.86234848       0.00000000
Si       2.80507284      -2.68315848       0.15585186       0.00000000
