10
Lattice="16.28999089631971 0.0 0.0 0.0 16.28999089631971 0.0 0.0 0.0 34.2284985734139" Properties=species:S:1:pos:R:3:initial_magmoms:R:1 pbc="T T T"
Si       1.31595507      -1.30095519       1.44179416       0.00000000
Si      -0.84967011      -1.84728178      -1.21501825       0.00000000
Si       1.21924134       1.29793344      -1.58327572       0.00000000
Si      -1.42425099       1.41880524       1.41336738       0.00000000
Si       2.58854616       2.63913801      -0.00440179       0.00000000
Si       2.59357977      -2.76740614       0.05393730       0.00000000
Si      -0.05755257      -2.65536352       2.80264472       0.00000000
Si       2.66001039       0.05628358       2.80555414       0.00000000
Si      -2.72999223      -2.74609882      -0.03818533       0.00000000
Si       0.69848262      -3.69689725      -1.11081706       0.00000000
