10
Lattice="16.28999089631971 0.0 0.0 0.0 16.28999089631971 0.0 0.0 0.0 34.2284985734139" Properties=species:S:1:pos:R:3:initial_magmoms:R:1 pbc="T T T"
Si       1.35711990       1.35436689       1.35716073       0.00000000
Si       1.35713619      -1.35734307      -1.35726341       0.00000000
Si      -1.35780408       1.35764118      -1.35743456       0.00000000
Si      -1.35935163      -1.35790345       1.35681844       0.00000000
Si      -2.71564074       0.00229689       2.71213083       0.00000000
Si      -0.00004887       2.71459818      -2.71459528       0.00000000
Si       2.71479366       2.71463076      -0.00020537       0.00000000
Si      -2.71534752       2.71474479       0.00065034       0.00000000
Si       2.71513575      -2.71525116      -0.00020537       0.00000000
Si      -2.71542897      -2.71501360       0.00020537       0.00000000
