10
Lattice="16.28999089631971 0.0 0.0 0.0 16.28999089631971 0.0 0.0 0.0 34.2284985734139" Properties=species:S:1:pos:R:3:initial_magmoms:R:1 pbc="T T T"
Si      -1.74599478      -0.39392478       1.50437758       0.00000000
Si      -1.17273339       0.68341437      -1.96321086       0.00000000
Si       0.87115662      -2.27773459       0.21974708       0.00000000
Si       2.69376327       0.86485239       1.30263470       0.00000000
Si      -0.38100681      -0.33485724       3.42055846       0.00000000
Si       1.90166202      -0.71814465       2.93334974       0.00000000
Si       1.63110141       2.96689770       1.56325063       0.00000000
Si       0.50111298       1.73016090      -3.28662227       0.00000000
Si      -3.41309709       1.19638647       1.05697663       0.00000000
Si       2.04079491      -2.89111988      -1.77122311       0.00000000
