10
Lattice="16.28999089631971 0.0 0.0 0.0 16.28999089631971 0.0 0.0 0.0 34.2284985734139" Properties=species:S:1:pos:R:3:initial_magmoms:R:1 pbc="T T T"
Si       1.25203311       0.44597133       1.88195236       0.00000000
Si       1.31751891      -0.22089566      -1.91364797       0.00000000
Si      -0.17218530      -2.33648840       0.28830680       0.00000000
Si      -1.96349234       1.23821267       0.46181116       0.00000000
Si       0.00131949       2.52465026      -0.46763001       0.00000000
Si      -0.56389464      -0.95920148      -3.06095365       0.00000000
Si      -2.05696599      -2.04142763      -1.63660235       0.00000000
Si      -1.02064995      -2.19289205       2.57336842       0.00000000
Si       3.12495957      -0.84129640       1.41654721       0.00000000
Si      -0.37085814      -0.15609730       3.59040036       0.00000000
