10
Lattice="16.28999089631971 0.0 0.0 0.0 16.28999089631971 0.0 0.0 0.0 34.2284985734139" Properties=species:S:1:pos:R:3:initial_magmoms:R:1 pbc="T T T"
Si       1.16932878      -1.50602679       1.31112337       0.00000000
Si      -1.40805873      -1.35700587      -1.25192755       0.00000000
Si      -1.55439180       1.22930856       1.30855281       0.00000000
Si       1.28265831       1.03887846      -1.72685751       0.00000000
Si      -2.34048204       0.29212857      -2.59742563       0.00000000
Si       2.56183056       2.57408064      -0.36043656       0.00000000
Si       2.50906725      -0.13258431       2.67135097       0.00000000
Si      -0.43710957       1.87901892      -3.14087180       0.00000000
Si      -0.20937537       2.58027084       2.66946840       0.00000000
Si       2.43911799      -2.98276416      -0.13884456       0.00000000
