10
Lattice="16.28999089631971 0.0 0.0 0.0 16.28999089631971 0.0 0.0 0.0 34.2284985734139" Properties=species:S:1:pos:R:3:initial_magmoms:R:1 pbc="T T T"
Si      -1.35711990      -1.35436689      -1.35716073       0.00000000
Si       1.36016613      -1.35413883       1.35599696       0.00000000
Si       1.35767376       1.36026387      -1.35736610       0.00000000
Si      -1.35700587       1.36313091       1.36017284       0.00000000
Si       2.71262709      -2.71134018       0.00003423       0.00000000
Si       0.00001629      -2.71170996      -2.71442414       0.00000000
Si      -2.71647153      -2.71227034      -0.00034229       0.00000000
Si      -2.71492398       0.00327429      -2.71459528       0.00000000
Si       2.71536381       0.00332316      -2.71449260       0.00000000
Si       2.71466334       2.71785618      -0.00027383       0.00000000
