10
Lattice="16.28999089631971 0.0 0.0 0.0 16.28999089631971 0.0 0.0 0.0 34.2284985734139" Properties=species:S:1:pos:R:3:initial_magmoms:R:1 pbc="T T T"
Si       1.48263435      -1.21753089      -1.38296903       0.00000000
Si       0.85401954       1.84332753       1.21781643       0.00000000
Si      -1.25864685       1.47958812      -1.37622601       0.00000000
Si      -0.61439364      -1.85108157       1.49441708       0.00000000
Si      -2.56943799      -2.74273101       0.29378337       0.00000000
Si       0.12153969      -2.58245370      -2.74560632       0.00000000
Si       1.47670479       0.94490145       3.34607720       0.00000000
Si      -2.59387299       0.13458798      -2.74656472       0.00000000
Si      -2.67607233       2.69153154       0.15676661       0.00000000
Si       2.76718230      -2.64533310      -0.02615059       0.00000000
