10
Lattice="16.28999089631971 0.0 0.0 0.0 16.28999089631971 0.0 0.0 0.0 34.2284985734139" Properties=species:S:1:pos:R:3:initial_magmoms:R:1 pbc="T T T"
Si      -1.28454795       1.42780221      -1.35681844       0.00000000
Si       1.42167717      -1.31750262      -1.35072577       0.00000000
Si      -1.67384637      -1.04674653       1.32341141       0.00000000
Si       1.72408473       1.07302230       1.24198176       0.00000000
Si      -0.50111298      -1.73016090       3.28662227       0.00000000
Si      -3.38157594       0.79425153       1.52056767       0.00000000
Si      -2.64564261       0.06287940      -2.71945573       0.00000000
Si       0.07152939      -2.65439034      -2.72363161       0.00000000
Si       3.44647530      -0.82534914       1.44560722       0.00000000
Si      -2.76718230       2.64533310       0.02615059       0.00000000
