10
Lattice="16.28999089631971 0.0 0.0 0.0 16.28999089631971 0.0 0.0 0.0 34.2284985734139" Properties=species:S:1:pos:R:3:initial_magmoms:R:1 pbc="T T T"
Si      -1.51386228       0.95363289      -1.57957763       0.00000000
Si       0.81648738      -0.40661469      -2.35704419       0.00000000
Si      -1.83347208       0.68245326       1.77488556       0.00000000
Si       2.77167834      -0.46602432      -0.43576326       0.00000000
Si      -0.11378565      -2.71596654       1.60651548       0.00000000
Si      -0.52650909       2.56508856       1.87996711       0.00000000
Si       2.23580250      -2.09394918       1.21008079       0.00000000
Si      -0.15310971      -2.62528011      -2.10830555       0.00000000
Si       2.85593022       1.74910617       0.50808812       0.00000000
Si      -1.28832723      -1.21402854       3.00427123       0.00000000
