10
Lattice="16.28999089631971 0.0 0.0 0.0 16.28999089631971 0.0 0.0 0.0 34.2284985734139" Properties=species:S:1:pos:R:3:initial_magmoms:R:1 pbc="T T T"
Si      -1.34680833      -0.87952968       1.71994879       0.00000000
Si       0.22405266       1.91954844      -1.38409857       0.00000000
Si      -2.00378403      -0.89682966      -1.38813754       0.00000000
Si       1.63523907       1.22668587       1.68226319       0.00000000
Si      -3.33135387      -1.43990568       0.46947835       0.00000000
Si       0.85030542      -3.53449180       0.76880674       0.00000000
Si       0.10941993      -2.42435925       2.86852093       0.00000000
Si       2.28490056      -2.56422519      -1.59785566       0.00000000
Si      -0.77954166       1.45806903      -3.41819669       0.00000000
Si       2.48890023       2.24210673      -1.81753429       0.00000000
