10
Lattice="16.28999089631971 0.0 0.0 0.0 16.28999089631971 0.0 0.0 0.0 34.2284985734139" Properties=species:S:1:pos:R:3:initial_magmoms:R:1 pbc="T T T"
Si      -1.40893839       1.28787111      -1.27680928       0.00000000
Si       1.32418152       1.38140829       1.36770311       0.00000000
Si      -1.39742136      -1.33581258       1.36558094       0.00000000
Si       1.37378457      -1.34200278      -1.66432402       0.00000000
Si      -2.43429615      -0.18992511      -2.87418373       0.00000000
Si       2.65733883      -2.68478748      -0.01281516       0.00000000
Si       2.67299352       2.71041165      -0.00291627       0.00000000
Si       2.67525783       0.02531466       2.72376852       0.00000000
Si      -0.03888423      -2.69107542       2.72435041       0.00000000
Si      -2.74243779      -2.68677486       0.00466535       0.00000000
