10
Lattice="16.28999089631971 0.0 0.0 0.0 16.28999089631971 0.0 0.0 0.0 34.2284985734139" Properties=species:S:1:pos:R:3:initial_magmoms:R:1 pbc="T T T"
Si       1.34501643       1.35096228       1.36091560       0.00000000
Si      -1.28308185       1.42952895      -1.35895430       0.00000000
Si      -1.36743147      -1.36278882       1.36016257       0.00000000
Si       1.55439180      -1.22930856      -1.30855281       0.00000000
Si       0.14633307      -2.58631443      -2.56048035       0.00000000
Si      -2.57909796      -0.04486266      -2.69616969       0.00000000
Si       0.30814164       2.49684975      -2.87884908       0.00000000
Si       2.70355356      -0.00430056       2.71968506       0.00000000
Si       2.74243779       2.68677486      -0.00466535       0.00000000
Si      -0.01057221       2.71388142       2.71985621       0.00000000
