10
Lattice="16.28999089631971 0.0 0.0 0.0 16.28999089631971 0.0 0.0 0.0 34.2284985734139" Properties=species:S:1:pos:R:3:initial_magmoms:R:1 pbc="T T T"
Si      -1.34501643      -1.35096228      -1.36091560       0.00000000
Si       1.35853713      -1.35526284       1.35876947       0.00000000
Si      -1.35558864       1.36291914       1.35894061       0.00000000
Si       1.39742136       1.33581258      -1.36558094       0.00000000
Si       0.20937537      -2.58027084      -2.66946840       0.00000000
Si      -0.01151703       2.62368369      -2.64239022       0.00000000
Si      -2.62809828       0.07856667      -2.71986990       0.00000000
Si      -2.71244790      -2.71375110      -0.00075303       0.00000000
Si       0.00149868      -2.71178001       2.71555368       0.00000000
Si      -2.71282257       0.00320913       2.71569059       0.00000000
