10
Lattice="16.28999089631971 0.0 0.0 0.0 16.28999089631971 0.0 0.0 0.0 34.2284985734139" Properties=species:S:1:pos:R:3:initial_magmoms:R:1 pbc="T T T"
Si      -0.17370027      -1.95102072       1.27566263       0.00000000
Si      -1.06016949       1.18226304       1.77218150       0.00000000
Si       2.02966884       1.26245871      -0.05168506       0.00000000
Si      -1.09863018      -0.61548507      -2.07643880       0.00000000
Si       0.99825120       3.32443062      -0.75603950       0.00000000
Si       0.82989405      -1.48954131       3.30976075       0.00000000
Si      -0.98772786       2.91571452      -2.15533553       0.00000000
Si      -3.22157556      -1.48541994      -1.35438822       0.00000000
Si       3.16557054       0.55151424      -2.02694436       0.00000000
Si       0.24876459      -2.34040059      -3.02987416       0.00000000
