10
Lattice="16.28999089631971 0.0 0.0 0.0 16.28999089631971 0.0 0.0 0.0 34.2284985734139" Properties=species:S:1:pos:R:3:initial_magmoms:R:1 pbc="T T T"
Si      -1.71545985      -0.24439398      -1.57276616       0.00000000
Si      -0.02768323       2.16606175       1.04379865       0.00000000
Si      -0.70065801      -1.70889660       1.56835068       0.00000000
Si       2.18302127      -0.28470522      -1.01511515       0.00000000
Si       2.71741472      -2.00508138       0.51541302       0.00000000
Si       1.64437613      -1.62767466       2.65551686       0.00000000
Si      -1.33099956       1.63420954      -2.98116698       0.00000000
Si      -2.20743414       2.24332522       1.92460109       0.00000000
Si      -3.88584171      -0.22367310      -0.53187694       0.00000000
Si      -1.73872197      -2.38436145      -2.70340256       0.00000000
