10
Lattice="16.28999089631971 0.0 0.0 0.0 16.28999089631971 0.0 0.0 0.0 34.2284985734139" Properties=species:S:1:pos:R:3:initial_magmoms:R:1 pbc="T T T"
Si      -1.44487413       1.12788702      -1.42589159       0.00000000
Si       1.02535776       1.47779622       1.59737445       0.00000000
Si      -1.59122349      -1.06732080       1.51989478       0.00000000
Si       0.80914059      -1.84713939      -1.57057553       0.00000000
Si       1.68171444       1.94183316      -1.77207882       0.00000000
Si      -2.30935185      -0.62561745      -2.75084328       0.00000000
Si       2.52890847      -2.68727985      -0.15656124       0.00000000
Si       1.79530461       3.24503316       0.32503644       0.00000000
Si      -1.09423188      -3.43402974      -1.02712936       0.00000000
Si       2.43429615       0.18992511       2.87418373       0.00000000
