10
Lattice="16.28999089631971 0.0 0.0 0.0 16.28999089631971 0.0 0.0 0.0 34.2284985734139" Properties=species:S:1:pos:R:3:initial_magmoms:R:1 pbc="T T T"
Si       0.53421426      -2.26225746      -0.48145833       0.00000000
Si       1.81434762       1.57859874      -0.15094776       0.00000000
Si      -1.35584928       0.40954689      -2.01903757       0.00000000
Si      -2.55352266      -0.47350143      -0.14851754       0.00000000
Si      -1.08734121      -0.40317750       2.34800786       0.00000000
Si      -1.23786081       2.69203653      -1.67408257       0.00000000
Si       3.01303098       0.24733107      -1.71019366       0.00000000
Si       2.79906183      -1.93969917      -0.91489405       0.00000000
Si      -0.46938006      -2.72373687      -2.51555645       0.00000000
Si      -2.06604441       3.13605306       0.53180848       0.00000000
