10
Lattice="16.28999089631971 0.0 0.0 0.0 16.28999089631971 0.0 0.0 0.0 34.2284985734139" Properties=species:S:1:pos:R:3:initial_magmoms:R:1 pbc="T T T"
Si       1.35729909      -1.35431802       1.35832450       0.00000000
Si      -1.35729909      -1.35575154      -1.35842718       0.00000000
Si       1.35788553       1.35916195      -1.35829027       0.00000000
Si      -1.35594702       1.35987291       1.36034398       0.00000000
Si      -0.00043983      -2.71306692      -2.71476642       0.00000000
Si       2.71362078      -2.71490769      -0.00102686       0.00000000
Si      -2.71645524      -2.71290402       0.00020537       0.00000000
Si       2.71249677       2.71743983      -0.00088994       0.00000000
Si      -2.71500543       0.00195480      -2.71504025       0.00000000
Si       2.71518462       0.00206883      -2.71497180       0.00000000
