10
Lattice="16.28999089631971 0.0 0.0 0.0 16.28999089631971 0.0 0.0 0.0 34.2284985734139" Properties=species:S:1:pos:R:3:initial_magmoms:R:1 pbc="T T T"
Si      -0.91282644      -1.71413154      -1.24769793       0.00000000
Si       1.84274109       1.05622731      -1.22880379       0.00000000
Si      -1.63185075       1.83766905      -0.16830162       0.00000000
Si      -0.52064469      -0.83536749       2.31973510       0.00000000
Si       0.17558991       1.21726831       3.16189355       0.00000000
Si      -2.12387391      -0.19696239      -2.66400553       0.00000000
Si       0.61629957       2.54085948      -2.65965851       0.00000000
Si      -3.12155496      -0.27792369       2.03365315       0.00000000
Si      -1.71320301      -3.48333957       0.25753537       0.00000000
Si      -3.51326430       1.09936323      -1.31560731       0.00000000
