10
Lattice="16.28999089631971 0.0 0.0 0.0 16.28999089631971 0.0 0.0 0.0 34.2284985734139" Properties=species:S:1:pos:R:3:initial_magmoms:R:1 pbc="T T T"
Si      -2.25059382      -0.47956131      -0.20653488       0.00000000
Si       0.91536768      -0.60955551       2.05579900       0.00000000
Si       1.05412590      -1.13943663      -1.74346378       0.00000000
Si       1.01457378       2.05887681      -0.61180053       0.00000000
Si       3.21297444      -0.63456066      -0.98328263       0.00000000
Si       3.12901578      -0.36263169       1.37708172       0.00000000
Si      -3.12481296      -0.24169473       1.94017507       0.00000000
Si       0.27531729       0.99079038       3.60296223       0.00000000
Si      -2.47502115      -2.71414206      -0.88597095       0.00000000
Si      -3.19642380       0.93335184      -1.79039108       0.00000000
