10
Lattice="16.28999089631971 0.0 0.0 0.0 16.28999089631971 0.0 0.0 0.0 34.2284985734139" Properties=species:S:1:pos:R:3:initial_magmoms:R:1 pbc="T T T"
Si      -0.64005039       1.60034589       1.54716323       0.00000000
Si       2.21364810       0.24692382      -0.67871728       0.00000000
Si      -0.91536768       0.60955551      -2.05579900       0.00000000
Si       0.03025053      -2.08143846       1.14953054       0.00000000
Si       2.01622959      -1.67272236       2.54882657       0.00000000
Si       3.44507436      -1.00533735       0.79574458       0.00000000
Si       0.09920610       2.66843232      -2.66759953       0.00000000
Si      -2.93325885       2.13496740       1.12019670       0.00000000
Si       2.29760676      -0.02500515      -3.03908163       0.00000000
Si       0.13875822      -0.52988112      -3.79926278       0.00000000
