10
Lattice="16.28999089631971 0.0 0.0 0.0 16.28999089631971 0.0 0.0 0.0 34.2284985734139" Properties=species:S:1:pos:R:3:initial_magmoms:R:1 pbc="T T T"
Si      -0.33508530      -2.17609965       0.84876455       0.00000000
Si       2.09600172       0.98723916      -0.52349095       0.00000000
Si      -1.36944003      -0.42482691      -1.96557263       0.00000000
Si      -0.62287096       1.29666771       1.98504866       0.00000000
Si      -2.69614880      -1.59441633       0.86201099       0.00000000
Si      -3.54919094      -0.34756344      -1.08477018       0.00000000
Si       3.00511404       1.79369190       1.46371410       0.00000000
Si       3.34086723      -0.58603275      -1.74034898       0.00000000
Si      -1.13381169       1.47732381      -3.33615093       0.00000000
Si      -1.26026445      -0.25405884       3.69955511       0.00000000
