10
Lattice="16.28999089631971 0.0 0.0 0.0 16.28999089631971 0.0 0.0 0.0 34.2284985734139" Properties=species:S:1:pos:R:3:initial_magmoms:R:1 pbc="T T T"
Si      -1.35275418       1.35397690      -1.35757147       0.00000000
Si      -1.35601218      -1.35692086       1.35685267       0.00000000
Si       1.36018242      -1.35462397      -1.35784530       0.00000000
Si       1.35902583       1.35744179       1.35637347       0.00000000
Si      -2.69680950      -0.00326187      -2.72133145       0.00000000
Si       2.70454725       0.00018275      -2.71959607       0.00000000
Si      -2.71331127       0.00017227       2.71353420       0.00000000
Si      -2.71204065       2.71570036      -0.00099263       0.00000000
Si       0.00127062      -2.71449688       2.71397917       0.00000000
Si       0.00141723       2.71545601       2.71384225       0.00000000
