10
Lattice="16.28999089631971 0.0 0.0 0.0 16.28999089631971 0.0 0.0 0.0 34.2284985734139" Properties=species:S:1:pos:R:3:initial_magmoms:R:1 pbc="T T T"
Si       1.96996599      -1.21849200      -0.14762760       0.00000000
Si       0.64409031       2.10740472      -0.75004951       0.00000000
Si      -0.57581892       0.75696372       2.12494061       0.00000000
Si      -1.65304404      -0.15838767      -1.64228428       0.00000000
Si       2.39992425       1.31823567      -2.06555413       0.00000000
Si      -2.79889893       1.30699557       1.51683676       0.00000000
Si       1.72300959      -2.75628429       1.62544385       0.00000000
Si      -3.43256364       1.05407703      -0.73817221       0.00000000
Si      -0.71734644       0.60817086      -3.65338084       0.00000000
Si       2.09746782      -2.11314694      -2.34650180       0.00000000
