10
Lattice="16.28999089631971 0.0 0.0 0.0 16.28999089631971 0.0 0.0 0.0 34.2284985734139" Properties=species:S:1:pos:R:3:initial_magmoms:R:1 pbc="T T T"
Si       1.35524655      -1.35540945       1.35688690       0.00000000
Si      -1.33973847      -1.37344248      -1.36022760       0.00000000
Si      -1.35990549       1.35759231       1.35688690       0.00000000
Si       1.33631757       1.36388025      -1.38027867       0.00000000
Si      -2.50906725       0.13258431      -2.67135097       0.00000000
Si       2.66502771      -0.02063943      -2.73021718       0.00000000
Si       2.71342530       0.00089595       2.71401340       0.00000000
Si      -0.00169416      -2.71389771       2.71373957       0.00000000
Si       2.71321353       2.71521720      -0.00386782       0.00000000
Si      -0.00144981       2.71549413       2.71367111       0.00000000
