10
Lattice="16.28999089631971 0.0 0.0 0.0 16.28999089631971 0.0 0.0 0.0 34.2284985734139" Properties=species:S:1:pos:R:3:initial_magmoms:R:1 pbc="T T T"
Si      -1.35524655       1.35540945      -1.35688690       0.00000000
Si       1.35817875       1.35630540       1.35712650       0.00000000
Si      -1.35694071      -1.35848826       1.35685267       0.00000000
Si       1.36016613      -1.35987291      -1.36250038       0.00000000
Si      -2.69498502      -0.01803303      -2.71711450       0.00000000
Si       0.00086337       2.71393029       2.71408185       0.00000000
Si      -2.71515204       2.71300176       0.00000000       0.00000000
Si      -2.71463076      -0.00154755       2.71397917       0.00000000
Si      -2.71301805      -2.71590138      -0.00054766       0.00000000
Si       2.71596654       2.71329498      -0.00030806       0.00000000
