10
Lattice="16.28999089631971 0.0 0.0 0.0 16.28999089631971 0.0 0.0 0.0 34.2284985734139" Properties=species:S:1:pos:R:3:initial_magmoms:R:1 pbc="T T T"
Si      -1.06266186       2.10204531       0.26061593       0.00000000
Si      -0.79210125      -1.58299704       1.63071504       0.00000000
Si       2.30852106       0.47087874       0.56189535       0.00000000
Si      -2.69376327      -0.86485239      -1.30263470       0.00000000
Si       1.25382501       0.03995937      -3.14364975       0.00000000
Si       0.16803135       3.07726245       1.99767898       0.00000000
Si       0.00193851      -0.73080198       3.64109280       0.00000000
Si      -0.30579588      -3.70326597       0.65047875       0.00000000
Si      -1.82260665      -3.14258698      -1.08288761       0.00000000
Si       3.23043732      -1.46020302       1.56266875       0.00000000
