10
Lattice="16.28999089631971 0.0 0.0 0.0 16.28999089631971 0.0 0.0 0.0 34.2284985734139" Properties=species:S:1:pos:R:3:initial_magmoms:R:1 pbc="T T T"
Si      -1.00359432      -0.46147941      -2.03409812       0.00000000
Si       2.26484757       0.32255829      -0.43343572       0.00000000
Si      -0.53421426       2.26225746       0.48145833       0.00000000
Si      -0.22405266      -1.91954844       1.38409857       0.00000000
Si       1.41118641      -0.69286257       3.06636176       0.00000000
Si       3.05665560       0.34782408       1.77940372       0.00000000
Si      -3.08773692       1.78875603       0.33294079       0.00000000
Si      -2.22783669      -2.81637810      -0.00403897       0.00000000
Si      -1.89006354       2.67180435      -1.53757924       0.00000000
Si       0.00923643      -2.46677841      -2.67838151       0.00000000
