10
Lattice="16.28999089631971 0.0 0.0 0.0 16.28999089631971 0.0 0.0 0.0 34.2284985734139" Properties=species:S:1:pos:R:3:initial_magmoms:R:1 pbc="T T T"
Si      -1.64546919      -1.04068665       1.28695804       0.00000000
Si      -0.79180803      -0.02526579      -2.21283944       0.00000000
Si       1.87466949      -1.58483781       0.30699558       0.00000000
Si      -0.23581404      -2.16213912       2.79679535       0.00000000
Si      -3.05665560      -0.34782408      -1.77940372       0.00000000
Si       0.61897113      -1.56994875      -3.24749907       0.00000000
Si       2.03717853       1.22883615       2.85027237       0.00000000
Si      -0.57783888       2.16176445      -3.00813905       0.00000000
Si       2.60915301      -1.89146448      -1.92148630       0.00000000
Si       1.40237352       2.98429542      -1.87322409       0.00000000
