10
Lattice="16.28999089631971 0.0 0.0 0.0 16.28999089631971 0.0 0.0 0.0 34.2284985734139" Properties=species:S:1:pos:R:3:initial_magmoms:R:1 pbc="T T T"
Si       1.41688791      -1.27418751       1.38147667       0.00000000
Si      -1.27762470       1.46645095       1.38785686       0.00000000
Si       1.71817146       1.01437830      -1.34185514       0.00000000
Si      -1.89509715      -0.92949111      -1.16475436       0.00000000
Si       3.41430255      -0.74096694      -1.36619162       0.00000000
Si      -3.44324988       0.92012436      -1.26895555       0.00000000
Si       0.68212746       0.93494826      -3.60439439       0.00000000
Si       0.06807591      -2.60319087       2.75209605       0.00000000
Si      -2.66504400      -2.69672805       0.10758365       0.00000000
Si      -2.59357977       2.76740614      -0.05393730       0.00000000
