10
Lattice="16.28999089631971 0.0 0.0 0.0 16.28999089631971 0.0 0.0 0.0 34.2284985734139" Properties=species:S:1:pos:R:3:initial_magmoms:R:1 pbc="T T T"
Si       0.08034228       2.30993829       0.13017105       0.00000000
Si       1.90689111      -0.66196044      -1.15603396       0.00000000
Si      -2.15884854      -0.50487597      -0.76018115       0.00000000
Si      -0.08395866       0.27192897       2.36036435       0.00000000
Si      -3.21297444       0.63456066       0.98328263       0.00000000
Si       0.90111393       2.40378498       2.28413744       0.00000000
Si      -2.19840066       2.69343747       0.37148210       0.00000000
Si       0.89769303      -3.65769144       0.48423084       0.00000000
Si      -2.29760676       0.02500515       3.03908163       0.00000000
Si      -2.36429802      -2.80613169      -1.16548103       0.00000000
