10
Lattice="16.28999089631971 0.0 0.0 0.0 16.28999089631971 0.0 0.0 0.0 34.2284985734139" Properties=species:S:1:pos:R:3:initial_magmoms:R:1 pbc="T T T"
Si       0.18924093      -2.25451971      -0.44962581       0.00000000
Si      -1.90689111       0.66196044       1.15603396       0.00000000
Si       2.06988885      -0.23983767       1.16209240       0.00000000
Si       1.36663326       1.37779191      -1.53254765       0.00000000
Si       2.57971698      -2.10812148      -0.33793816       0.00000000
Si      -1.00919808      -2.99573100       1.64026480       0.00000000
Si       1.54649115       3.23978778      -0.10857286       0.00000000
Si       2.37794904       2.02243608       1.79963278       0.00000000
Si      -1.82654883       2.97189873       1.28620501       0.00000000
Si       3.32765604      -0.25537833      -1.66569659       0.00000000
