10
Lattice="16.28999089631971 0.0 0.0 0.0 16.28999089631971 0.0 0.0 0.0 34.2284985734139" Properties=species:S:1:pos:R:3:initial_magmoms:R:1 pbc="T T T"
Si       1.34410419       1.36360169      -1.38940399       0.00000000
Si      -1.36829484      -1.35208944      -1.38882211       0.00000000
Si      -1.50011352       1.19956139       1.45988051       0.00000000
Si       1.41117012      -1.48604778       1.53730542       0.00000000
Si       2.68864821       2.72127545       0.00421011       0.00000000
Si       2.70754461      -2.71274994      -0.02368613       0.00000000
Si      -2.73369006       2.70149939      -0.02402842       0.00000000
Si       2.70164763       0.00633681      -2.75276008       0.00000000
Si      -2.73735531      -2.71817451      -0.01961294       0.00000000
Si      -0.01485648      -2.70970371      -2.75310236       0.00000000
