10
Lattice="16.28999089631971 0.0 0.0 0.0 16.28999089631971 0.0 0.0 0.0 34.2284985734139" Properties=species:S:1:pos:R:3:initial_magmoms:R:1 pbc="T T T"
Si      -1.35671878      -1.35739683      -1.35678421       0.00000000
Si       1.35704985      -1.35769005       1.35832450       0.00000000
Si      -1.35797215       1.35773892       1.35767415       0.00000000
Si       1.35843450       1.35871632      -1.35736610       0.00000000
Si       2.71262220      -0.00091224       2.71514294       0.00000000
Si      -0.00023458       2.71393029       2.71480065       0.00000000
Si       2.71459329      -2.71479366       0.00023960       0.00000000
Si      -2.71516411      -2.71487511       0.00006846       0.00000000
Si      -2.71547362       2.71472850       0.00054766       0.00000000
Si       2.71531005       2.71521720       0.00041074       0.00000000
