10
Lattice="16.28999089631971 0.0 0.0 0.0 16.28999089631971 0.0 0.0 0.0 34.2284985734139" Properties=species:S:1:pos:R:3:initial_magmoms:R:1 pbc="T T T"
Si      -2.17337922       0.80223526       0.53646356       0.00000000
Si       0.05328459      -0.06106307      -2.38062763       0.00000000
Si       1.93363670       1.46409796      -0.39626355       0.00000000
Si       0.56773908      -2.01641434       1.31232137       0.00000000
Si       2.05153395       1.76209093       2.02975110       0.00000000
Si       1.84016305      -1.81554235      -2.49467706       0.00000000
Si       2.87647910      -1.96700677       1.71529371       0.00000000
Si      -3.55073130      -0.95709193       1.25779534       0.00000000
Si      -0.40112496      -1.75422679       3.46286491       0.00000000
Si       0.00659745       2.26434421       3.18510049       0.00000000
