10
Lattice="16.28999089631971 0.0 0.0 0.0 16.28999089631971 0.0 0.0 0.0 34.2284985734139" Properties=species:S:1:pos:R:3:initial_magmoms:R:1 pbc="T T T"
Si      -0.61476831       1.90298965      -1.24174217       0.00000000
Si      -1.27325898      -1.95044961      -0.43607132       0.00000000
Si      -0.12750183       0.89465494       2.19887421       0.00000000
Si       2.17038186      -0.02072088      -1.04088922       0.00000000
Si       0.30245643       3.43138261       0.28094767       0.00000000
Si      -0.17102871      -2.58090519      -2.46838955       0.00000000
Si       2.14711974      -2.16068835      -2.17152562       0.00000000
Si      -2.09746782       2.11314694       2.34650180       0.00000000
Si       1.67840757       2.46699832       2.45647803       0.00000000
Si       3.88584171       0.22367310       0.53187694       0.00000000
