10
Lattice="16.28999089631971 0.0 0.0 0.0 16.28999089631971 0.0 0.0 0.0 34.2284985734139" Properties=species:S:1:pos:R:3:initial_magmoms:R:1 pbc="T T T"
Si      -1.96996599       1.21849200       0.14762760       0.00000000
Si      -0.24695640      -1.53779229       1.77307145       0.00000000
Si       0.12750183      -0.89465494      -2.19887421       0.00000000
Si       1.80590940       1.57234338       0.25760382       0.00000000
Si       0.42995826       2.53672767      -1.91792653       0.00000000
Si       2.04942861      -1.91118564       1.83659957       0.00000000
Si       2.65895154       0.32549049       2.20438500       0.00000000
Si      -0.48726648       1.00833471      -3.44061637       0.00000000
Si      -1.32587568       3.32589672      -0.60242191       0.00000000
Si      -1.87121601      -3.17295710       1.22640779       0.00000000
