10
Lattice="16.28999089631971 0.0 0.0 0.0 16.28999089631971 0.0 0.0 0.0 34.2284985734139" Properties=species:S:1:pos:R:3:initial_magmoms:R:1 pbc="T T T"
Si      -1.16758575      -1.45824822       1.40223968       0.00000000
Si       2.17434263       0.35152191       0.77928066       0.00000000
Si      -1.03278600       2.13429951      -0.06188516       0.00000000
Si       0.73845828      -0.98883558      -2.05826345       0.00000000
Si       0.77265099       3.08504907      -1.29907493       0.00000000
Si       2.81173612       1.90224846      -0.93522579       0.00000000
Si      -2.73869109      -2.21804966      -0.22382028       0.00000000
Si       3.20025914      -1.74872498       0.31466276       0.00000000
Si      -1.76726952       2.44092618       2.16659671       0.00000000
Si      -2.28434670       0.07004700       3.05321801       0.00000000
