10
Lattice="16.28999089631971 0.0 0.0 0.0 16.28999089631971 0.0 0.0 0.0 34.2284985734139" Properties=species:S:1:pos:R:3:initial_magmoms:R:1 pbc="T T T"
Si       1.16758575       1.45824822      -1.40223968       0.00000000
Si      -1.57110534      -0.75980144      -1.62605996       0.00000000
Si      -1.11676095       1.52829522       1.65097832       0.00000000
Si       1.42671078      -1.85612237       0.96681871       0.00000000
Si       0.20781153       0.59282568       3.43527847       0.00000000
Si      -1.93264560      -2.94326810      -0.76343286       0.00000000
Si      -3.47016096       0.65241450      -1.53579936       0.00000000
Si       3.34192838       1.80977013      -0.62295902       0.00000000
Si       0.13479975       3.59254773      -1.46412484       0.00000000
Si       1.88872776      -1.24766576       3.25541302       0.00000000
