10
Lattice="16.28999089631971 0.0 0.0 0.0 16.28999089631971 0.0 0.0 0.0 34.2284985734139" Properties=species:S:1:pos:R:3:initial_magmoms:R:1 pbc="T T T"
Si       0.11179827       1.90320957       1.37728710       0.00000000
Si       0.92191626      -1.93108176       1.00077340       0.00000000
Si      -2.30852106      -0.47087874      -0.56189535       0.00000000
Si       1.29806865       0.46731123      -2.05306072       0.00000000
Si      -2.14048971       2.60638371       1.43578363       0.00000000
Si       0.88309719      -3.52722483      -0.71185048       0.00000000
Si      -0.10653660      -2.02000887       3.14433432       0.00000000
Si      -3.37118292       1.63116657      -0.30127941       0.00000000
Si       1.28417328       1.30652316       3.30876812       0.00000000
Si      -3.10062231      -2.05387578       1.06881969       0.00000000
