10
Lattice="16.28999089631971 0.0 0.0 0.0 16.28999089631971 0.0 0.0 0.0 34.2284985734139" Properties=species:S:1:pos:R:3:initial_magmoms:R:1 pbc="T T T"
Si       1.17007716       1.95768333       0.47478377       0.00000000
Si       1.14400990      -1.66959468      -1.19837463       0.00000000
Si      -1.19016369      -1.19223252       1.64899307       0.00000000
Si      -1.76671566       1.13979501      -1.12875383       0.00000000
Si      -2.17383534      -0.73195857      -2.48078028       0.00000000
Si      -0.17713746      -1.84997385      -3.12136699       0.00000000
Si       3.28138334      -0.76657482      -1.48452504       0.00000000
Si       0.90838157      -3.57174540       0.17220367       0.00000000
Si      -3.33615942      -0.34018407       1.71265811       0.00000000
Si       1.65724590       3.02285385      -1.55828750       0.00000000
