10
Lattice="16.28999089631971 0.0 0.0 0.0 16.28999089631971 0.0 0.0 0.0 34.2284985734139" Properties=species:S:1:pos:R:3:initial_magmoms:R:1 pbc="T T T"
Si      -0.73448352       0.30662667       2.22848187       0.00000000
Si       1.03278600      -2.13429951       0.06188516       0.00000000
Si       1.80543699       0.95074956      -1.23718977       0.00000000
Si      -1.99018188       0.32151573      -1.32601278       0.00000000
Si       0.99940779       0.42596721      -3.34717252       0.00000000
Si      -1.14658794       1.27801566      -3.28350747       0.00000000
Si      -2.60915301       1.89146448       1.92148630       0.00000000
Si       3.20712863      -1.78277760       0.84116582       0.00000000
Si      -0.13479975      -3.59254773       1.46412484       0.00000000
Si      -3.40096104       1.86619869      -0.29135314       0.00000000
