10
Lattice="16.28999089631971 0.0 0.0 0.0 16.28999089631971 0.0 0.0 0.0 34.2284985734139" Properties=species:S:1:pos:R:3:initial_magmoms:R:1 pbc="T T T"
Si      -0.80602920      -0.52478235      -2.10998275       0.00000000
Si       0.46817460       2.33639325       0.00578462       0.00000000
Si       2.03908513      -1.18280061       0.36384914       0.00000000
Si      -1.80543699      -0.95074956       1.23718977       0.00000000
Si      -0.77265099      -3.08504907       1.29907493       0.00000000
Si      -2.95202493       0.32726610      -2.04631770       0.00000000
Si       1.40169164      -2.73352716       2.07835559       0.00000000
Si       0.37633158       1.76767677       3.28422627       0.00000000
Si      -0.79682535       3.16047177       1.85487760       0.00000000
Si       2.88708389       2.42820369      -0.00427856       0.00000000
