10
Lattice="16.28999089631971 0.0 0.0 0.0 16.28999089631971 0.0 0.0 0.0 34.2284985734139" Properties=species:S:1:pos:R:3:initial_magmoms:R:1 pbc="T T T"
Si       1.70660556       1.07834913       1.23417698       0.00000000
Si       1.39269726      -1.54505763      -1.21931773       0.00000000
Si      -1.10418507      -1.74982293       1.28179569       0.00000000
Si      -1.83282048       1.77754851      -0.37476329       0.00000000
Si       0.31426668       2.35709784       2.64403251       0.00000000
Si      -2.43289521      -0.36530325       2.63173420       0.00000000
Si      -2.03717853      -1.22883615      -2.85027237       0.00000000
Si      -0.16250904      -2.81367396      -2.54327680       0.00000000
Si       2.75374305      -0.40187430      -2.72472217       0.00000000
Si      -3.71644947       0.97748145       0.98022534       0.00000000
