10
Lattice="16.28999089631971 0.0 0.0 0.0 16.28999089631971 0.0 0.0 0.0 34.2284985734139" Properties=species:S:1:pos:R:3:initial_magmoms:R:1 pbc="T T T"
Si       1.34258922       1.34335485       1.36568705       0.00000000
Si       1.39233888      -1.27874871      -1.40985553       0.00000000
Si      -1.37026593      -1.37106414       1.36411254       0.00000000
Si      -1.37254653       1.29200877      -1.46460062       0.00000000
Si      -0.31426668      -2.35709784      -2.64403251       0.00000000
Si      -2.14708716      -0.57954933      -3.01879580       0.00000000
Si      -2.73150720       2.67279804      -0.00239942       0.00000000
Si       2.70928961       2.69913897      -0.02011268       0.00000000
Si       2.69917155      -2.72507265      -0.00869062       0.00000000
Si       2.70148183      -0.01205460       2.72449075       0.00000000
