10
Lattice="16.28999089631971 0.0 0.0 0.0 16.28999089631971 0.0 0.0 0.0 34.2284985734139" Properties=species:S:1:pos:R:3:initial_magmoms:R:1 pbc="T T T"
Si       1.35575154      -1.35601218      -1.35938558       0.00000000
Si       1.35672894       1.35769005       1.35736610       0.00000000
Si      -1.35778779      -1.35698958       1.35743456       0.00000000
Si      -1.35799956       1.35733167      -1.36044666       0.00000000
Si       2.71423042       0.00070047       2.71449260       0.00000000
Si      -0.00074934      -2.71422351       2.71469797       0.00000000
Si      -2.71596654      -2.71329498       0.00030806       0.00000000
Si      -0.00084708       2.71495656       2.71442414       0.00000000
Si      -2.71510317       0.00063531       2.71438991       0.00000000
Si       2.71548379      -2.71443528       0.00003423       0.00000000
