10
Lattice="16.28999089631971 0.0 0.0 0.0 16.28999089631971 0.0 0.0 0.0 34.2284985734139" Properties=species:S:1:pos:R:3:initial_magmoms:R:1 pbc="T T T"
Si       2.27502882      -0.57018258       0.42737727       0.00000000
Si      -0.20652462       1.61837892      -1.74695509       0.00000000
Si      -0.88708824      -2.07708903      -0.87183457       0.00000000
Si      -0.48850452       1.21852458       2.10673104       0.00000000
Si       3.35113386       1.48079358      -0.26154010       0.00000000
Si       1.84006953       2.84014521      -1.50605478       0.00000000
Si      -0.96063759      -0.57792033       3.55292014       0.00000000
Si       0.66899772      -2.69568549      -2.62026149       0.00000000
Si      -2.06075016       3.02267466      -1.51187363       0.00000000
Si      -3.08399022      -1.86898428      -1.68996460       0.00000000
