10
Lattice="16.28999089631971 0.0 0.0 0.0 16.28999089631971 0.0 0.0 0.0 34.2284985734139" Properties=species:S:1:pos:R:3:initial_magmoms:R:1 pbc="T T T"
Si      -0.46817460      -2.33639325      -0.00578462       0.00000000
Si      -1.26499995       0.82407852       1.84909298       0.00000000
Si       2.41890929       0.09181044      -0.01006318       0.00000000
Si      -0.24472467       1.59635484      -1.84587550       0.00000000
Si      -0.09184302      -0.56871648       3.27844165       0.00000000
Si       2.28814946       2.10217563       1.24817713       0.00000000
Si       0.14535567       2.66312178       2.14551195       0.00000000
Si       1.08603705       0.28874025      -3.28997666       0.00000000
Si      -1.27420380      -2.86117560      -2.11576736       0.00000000
Si       1.57091053      -3.51919386       0.35806452       0.00000000
