10
Lattice="16.28999089631971 0.0 0.0 0.0 16.28999089631971 0.0 0.0 0.0 34.2284985734139" Properties=species:S:1:pos:R:3:initial_magmoms:R:1 pbc="T T T"
Si      -1.23386976       1.39101939       1.42791792       0.00000000
Si       1.50008291      -1.32672276       1.40208908       0.00000000
Si       0.80242911       1.94651721      -1.27405156       0.00000000
Si      -1.94329926      -0.81984312      -1.32786595       0.00000000
Si      -2.58175323      -2.73385296      -0.04239886       0.00000000
Si      -2.63451654       2.69976192      -0.00936150       0.00000000
Si      -2.57823459       0.03621267       2.78966869       0.00000000
Si       0.34041213       1.33806060      -3.56264587       0.00000000
Si       0.13338252      -2.68250688       2.78788881       0.00000000
Si       0.13411557       2.74813670       2.78638275       0.00000000
