10
Lattice="16.28999089631971 0.0 0.0 0.0 16.28999089631971 0.0 0.0 0.0 34.2284985734139" Properties=species:S:1:pos:R:3:initial_magmoms:R:1 pbc="T T T"
Si       1.34811989       1.36267187      -1.37064676       0.00000000
Si      -1.36301688      -1.35184194      -1.36746351       0.00000000
Si      -1.29637449       1.22670216       1.56099155       0.00000000
Si       1.36838641      -1.35865116       1.42404325       0.00000000
Si      -0.57428766      -2.30413905       2.61598292       0.00000000
Si       0.74802051       1.94679902       2.87259412       0.00000000
Si      -2.36325546      -0.64084860       2.62354742       0.00000000
Si       2.53489897       0.19231974       2.75854470       0.00000000
Si      -2.70754461       2.71274994       0.02368613       0.00000000
Si       2.70856341       0.00421911      -2.72890280       0.00000000
