10
Lattice="16.28999089631971 0.0 0.0 0.0 16.28999089631971 0.0 0.0 0.0 34.2284985734139" Properties=species:S:1:pos:R:3:initial_magmoms:R:1 pbc="T T T"
Si      -0.83072484       0.14235831       2.15054354       0.00000000
Si       2.31147674       0.24672834       0.57308807       0.00000000
Si      -1.03773816       1.63455489      -1.40990687       0.00000000
Si      -0.12147453      -2.29956156      -0.73409902       0.00000000
Si       2.45368844      -1.73219715       1.82948004       0.00000000
Si       3.18569588       0.00886176      -1.57362187       0.00000000
Si      -2.87731899      -1.07940798       1.90964323       0.00000000
Si       0.68033949      -1.21699332       3.39505821       0.00000000
Si       0.00032580       2.31001974       2.86184637       0.00000000
Si      -0.06887412       1.37236734      -3.56045041       0.00000000
