10
Lattice="16.28999089631971 0.0 0.0 0.0 16.28999089631971 0.0 0.0 0.0 34.2284985734139" Properties=species:S:1:pos:R:3:initial_magmoms:R:1 pbc="T T T"
Si       1.33522614       1.34500014       1.37033871       0.00000000
Si      -1.35733330       1.35182565      -1.35924867       0.00000000
Si       1.35552348      -1.36301688      -1.35890638       0.00000000
Si      -1.35416652      -1.38150603       1.39234764       0.00000000
Si       2.59387299      -0.13458798       2.74656472       0.00000000
Si      -2.71255283       2.70904329       0.00383359       0.00000000
Si       0.00035838       2.71047681      -2.71627248       0.00000000
Si       2.71736748       2.70977634       0.00321748       0.00000000
Si      -2.70831743      -2.72109789       0.00256714       0.00000000
Si       2.71495656      -0.00425169      -2.71606711       0.00000000
