10
Lattice="16.28999089631971 0.0 0.0 0.0 16.28999089631971 0.0 0.0 0.0 34.2284985734139" Properties=species:S:1:pos:R:3:initial_magmoms:R:1 pbc="T T T"
Si      -0.81870186       0.14252121       2.20174940       0.00000000
Si      -0.86345049       1.63305621      -1.47103901       0.00000000
Si       2.26404121       0.21636378       0.68279047       0.00000000
Si       0.34147750      -1.27040823      -2.25784994       0.00000000
Si       2.12353996      -2.69009802      -0.96743482       0.00000000
Si       3.35291368      -0.50648868      -1.35722918       0.00000000
Si      -2.66686752      -1.30952052       2.26164931       0.00000000
Si       2.48846854       2.45094453       1.36222655       0.00000000
Si      -2.86096287      -2.41963515       0.12739854       0.00000000
Si       0.72493758      -1.06833078       3.54265158       0.00000000
