10
Lattice="16.28999089631971 0.0 0.0 0.0 16.28999089631971 0.0 0.0 0.0 34.2284985734139" Properties=species:S:1:pos:R:3:initial_magmoms:R:1 pbc="T T T"
Si      -1.80921205      -1.14349284      -1.04427785       0.00000000
Si       1.31526600      -1.15377183       1.63348934       0.00000000
Si       1.89315375       0.76232313      -1.30003333       0.00000000
Si      -1.30272107       1.61212356       1.46556244       0.00000000
Si      -1.57201336       2.08834542      -2.17720755       0.00000000
Si       0.57078042       1.52739927      -3.07454237       0.00000000
Si      -1.42736222       3.41663202      -0.27071335       0.00000000
Si       2.75763147       2.51582760       0.02491836       0.00000000
Si       3.10827372      -2.04608916       0.42368059       0.00000000
Si      -0.23522108      -2.50088967       2.90916528       0.00000000
