10
Lattice="16.28999089631971 0.0 0.0 0.0 16.28999089631971 0.0 0.0 0.0 34.2284985734139" Properties=species:S:1:pos:R:3:initial_magmoms:R:1 pbc="T T T"
Si       1.34806787       1.36311462       1.38398562       0.00000000
Si      -1.36670039      -1.35578412       1.38579973       0.00000000
Si      -1.50008291       1.32672276      -1.40208908       0.00000000
Si       1.51701146      -1.30577382      -1.42909538       0.00000000
Si      -2.70928961      -2.69913897       0.02011268       0.00000000
Si       2.70471536       2.71273915      -0.01023090       0.00000000
Si       2.71782881      -2.70286938       0.02866296       0.00000000
Si      -2.73395267       2.71774215       0.02582884       0.00000000
Si       2.70833174       0.00118917       2.74446651       0.00000000
Si      -0.00780778      -2.71119357       2.74460342       0.00000000
