10
Lattice="16.28999089631971 0.0 0.0 0.0 16.28999089631971 0.0 0.0 0.0 34.2284985734139" Properties=species:S:1:pos:R:3:initial_magmoms:R:1 pbc="T T T"
Si       1.16651256       1.55097090       1.33450145       0.00000000
Si       1.35014811      -1.36643778      -1.40976996       0.00000000
Si      -1.36838641       1.35865116      -1.42404325       0.00000000
Si      -1.94267407      -0.94548789       1.19193967       0.00000000
Si      -0.62036590       3.30545018       1.44855087       0.00000000
Si      -2.66476090       2.58535332       0.13694830       0.00000000
Si       2.65958392       2.63319705      -0.08984986       0.00000000
Si       2.61543802      -2.86272315       0.10925743       0.00000000
Si       2.69851702       0.00658116      -2.79499807       0.00000000
Si      -0.01491547      -2.71062342      -2.79024031       0.00000000
