10
Lattice="10.86 0.0 0.0 0.0 10.86 0.0 0.0 0.0 10.86" Properties=species:S:1:pos:R:3:initial_magmoms:R:1 pbc="T T T"
Si       1.25038782       1.38662652      -1.31957688       0.00000000
Si       1.25038782      -1.32837348       1.39542312       0.00000000
Si      -1.46461218      -1.32837348      -1.31957688       0.00000000
Si       2.60788782       0.02912652      -2.67707688       0.00000000
Si       2.60788782      -2.68587348       0.03792312       0.00000000
Si       2.60788782       2.74412652       0.03792312       0.00000000
Si       2.60788782       0.02912652       2.75292312       0.00000000
Si      -0.10711218      -2.68587348      -2.67707688       0.00000000
Si      -0.10711218       2.74412652      -2.67707688       0.00000000
Si      -0.10711218      -2.68587348       2.75292312       0.00000000
