10
Lattice="10.86 0.0 0.0 0.0 10.86 0.0 0.0 0.0 10.86" Properties=species:S:1:pos:R:3:initial_magmoms:R:1 pbc="T T T"
Si       1.28040486      -1.28040486      -1.20674148       0.00000000
Si      -1.49616048       1.49616048      -1.28006820       0.00000000
Si       2.67765246       0.03734754      -2.61437124       0.00000000
Si      -0.03734754      -2.67765246      -2.61437124       0.00000000
Si       2.67765246      -2.67765246       0.10062876       0.00000000
Si      -2.75234754       0.03734754      -2.61437124       0.00000000
Si      -0.03734754       2.75234754      -2.61437124       0.00000000
Si      -2.75234754      -2.67765246       0.10062876       0.00000000
Si       2.67765246       2.75234754       0.10062876       0.00000000
Si      -0.03734754      -2.67765246       2.81562876       0.00000000
