10
Lattice="16.290000149 0.0 0.0 0.0 16.290000149 0.0 0.0 0.0 29.1751946751" Properties=species:S:1:pos:R:3:initial_magmoms:R:1 pbc="T T T"
H        0.45467019       1.28311444      -0.66411496       0.00000000
Si      -0.81148636       0.99455338       1.93705788       0.00000000
Si      -1.87416452      -0.69644638      -1.28633433       0.00000000
Si       2.01078875      -1.35913987      -0.08119457       0.00000000
H        0.97510312      -0.24320970      -2.49001534       0.00000000
H       -0.65169775      -2.64722276      -1.07180913       0.00000000
Si       3.16996887       0.69989986      -0.68223275       0.00000000
Si      -2.31034556       2.30653370       0.63631100       0.00000000
Si       0.79154740      -2.93967714      -1.50167645       0.00000000
Si       2.00787284       0.86442886      -2.70258581       0.00000000
