10
Lattice="16.290000149 0.0 0.0 0.0 16.290000149 0.0 0.0 0.0 29.1751946751" Properties=species:S:1:pos:R:3:initial_magmoms:R:1 pbc="T T T"
Si       1.08291034      -1.42011334      -1.49797120       0.00000000
Si      -1.54525312       1.32449104      -1.18509641       0.00000000
Si      -1.05542911      -1.76236625       1.18206219       0.00000000
Si       2.12708306       0.96997177       0.67969451       0.00000000
Si       0.21901905       0.80718580       3.38750268       0.00000000
Si       2.37801422      -2.71394660      -0.07127500       0.00000000
Si      -0.20137698       2.70278795      -2.49847615       0.00000000
Si       2.49799007      -0.09373266      -2.73683749       0.00000000
Si      -1.40217805      -0.87992065       3.31727799       0.00000000
Si       0.54630144      -3.53914914       1.09234846       0.00000000
