10
Lattice="16.290000149 0.0 0.0 0.0 16.290000149 0.0 0.0 0.0 29.1751946751" Properties=species:S:1:pos:R:3:initial_magmoms:R:1 pbc="T T T"
Si      -1.39797523       1.42433245      -1.22579580       0.00000000
Si      -1.32866128      -1.38008881       1.37593719       0.00000000
Si       1.19482264      -1.47937636      -1.42695877       0.00000000
Si       1.30921102       1.45062451       1.36672075       0.00000000
H        3.22861287       1.74710252      -0.51467961       0.00000000
Si      -0.00298107       2.65476503      -2.65307550       0.00000000
Si       2.52793109      -0.14602356      -2.82170813       0.00000000
Si       2.66116700      -2.70436808       0.02158964       0.00000000
Si      -2.90178660       0.13856274      -2.51105066       0.00000000
Si       2.73634536       0.07894134       2.69858589       0.00000000
