10
Lattice="16.290000149 0.0 0.0 0.0 16.290000149 0.0 0.0 0.0 29.1751946751" Properties=species:S:1:pos:R:3:initial_magmoms:R:1 pbc="T T T"
Si       1.32204754       1.35575155       1.34069356       0.00000000
Si      -1.36598167       1.26012925      -1.42757437       0.00000000
Si       1.26491851      -1.46336329      -1.32664862       0.00000000
Si      -1.41977125      -1.39642768       1.27933812       0.00000000
Si      -2.17668611      -0.59794075      -2.61070524       0.00000000
Si      -0.55557046      -2.34129656      -2.52961191       0.00000000
Si       2.62923860       2.65728998      -0.11978168       0.00000000
Si       2.64471410      -0.03668508       2.67601304       0.00000000
Si      -0.09505215       2.68690520       2.64179054       0.00000000
Si       2.54334143      -2.81623152       0.07026262       0.00000000
