10
Lattice="16.290000149 0.0 0.0 0.0 16.290000149 0.0 0.0 0.0 29.1751946751" Properties=species:S:1:pos:R:3:initial_magmoms:R:1 pbc="T T T"
Si      -1.50221494      -1.36098064       1.16105605       0.00000000
Si       1.39207825      -1.35321031      -1.31381737       0.00000000
Si       1.33923349       1.28769193       1.43092660       0.00000000
Si      -1.34192134       1.34674318      -1.38375031       0.00000000
H       -0.85887397      -2.20374380       2.24015897       0.00000000
Si      -0.00754227      -2.72422560      -2.62772226       0.00000000
Si       2.69024465       2.67232565       0.07565128       0.00000000
Si      -2.93366613      -0.13530474       2.44788636       0.00000000
Si       2.74509309      -2.66330099       0.11238285       0.00000000
Si       2.73222398      -0.00487071      -2.68662698       0.00000000
