10
Lattice="16.290000149 0.0 0.0 0.0 16.290000149 0.0 0.0 0.0 29.1751946751" Properties=species:S:1:pos:R:3:initial_magmoms:R:1 pbc="T T T"
Si      -1.41315751      -1.28398270       1.38138712       0.00000000
Si       1.32370912      -1.39421224      -1.36484478       0.00000000
Si       1.39962052       1.37101528       1.31390489       0.00000000
Si      -1.34739478       1.33359715      -1.40726552       0.00000000
Si       0.00754227       2.72422560       2.62772226       0.00000000
Si      -2.64241721      -2.71744895      -0.04536743       0.00000000
Si       2.58483206      -2.78620905       0.06587759       0.00000000
Si       2.69047271      -0.03551220      -2.74249747       0.00000000
Si      -2.71772588       2.72073953      -0.09639484       0.00000000
Si       2.73976625       2.71935488      -0.05890472       0.00000000
