10
Lattice="16.290000149 0.0 0.0 0.0 16.290000149 0.0 0.0 0.0 29.1751946751" Properties=species:S:1:pos:R:3:initial_magmoms:R:1 pbc="T T T"
Si       0.65399464      -0.38721330       2.13737184       0.00000000
Si      -1.06057675      -1.76133998      -1.06752037       0.00000000
Si      -1.70210954       1.59348781      -0.02412789       0.00000000
Si       1.79452271       0.57653569      -1.44332606       0.00000000
H        2.34010739      -0.37724382       1.47924072       0.00000000
Si      -0.29234034       3.01997055      -1.19399484       0.00000000
H       -0.51085440      -3.00558648       1.32032343       0.00000000
H        3.12148983       1.17413434      -0.62049804       0.00000000
Si      -1.98452927      -0.72229861      -2.90401135       0.00000000
Si       0.76960477       1.91254376      -3.06441657       0.00000000
