10
Lattice="16.290000149 0.0 0.0 0.0 16.290000149 0.0 0.0 0.0 29.1751946751" Properties=species:S:1:pos:R:3:initial_magmoms:R:1 pbc="T T T"
Si      -1.31430002       0.26440299       1.91292999       0.00000000
Si       2.21117204      -0.07885989       0.80488527       0.00000000
Si      -1.29035860      -0.15566724      -2.02470016       0.00000000
Si      -0.54208233       2.38035998       0.73492315       0.00000000
Si      -0.51649074      -1.99598114       1.69347417       0.00000000
H        2.05864877       0.71700436       2.08109581       0.00000000
H       -2.42960791       0.80674597      -1.73146028       0.00000000
H        0.22447620      -1.62492751      -2.65602220       0.00000000
H        0.65432044       2.74714563       1.62502917       0.00000000
H        0.76522276      -1.95631499       2.51291787       0.00000000
