10
Lattice="16.290000149 0.0 0.0 0.0 16.290000149 0.0 0.0 0.0 29.1751946751" Properties=species:S:1:pos:R:3:initial_magmoms:R:1 pbc="T T T"
Si      -1.46549728      -1.38183184       1.21546779       0.00000000
Si       1.33871221      -1.33068124      -1.40846170       0.00000000
Si      -1.34706735       1.35280306      -1.38625937       0.00000000
Si       1.41224527       1.39427740       1.29957987       0.00000000
Si      -0.11517030       2.65795787       2.51440580       0.00000000
Si      -0.04904919      -2.60569955       2.59314965       0.00000000
Si       2.75887443       2.68465718      -0.07156675       0.00000000
Si      -2.80652268      -0.08053776       2.63953821       0.00000000
Si      -0.01016496       2.70321149      -2.75641404       0.00000000
Si       2.75825541      -2.70326036      -0.15529956       0.00000000
