10
Lattice="16.290000149 0.0 0.0 0.0 16.290000149 0.0 0.0 0.0 29.1751946751" Properties=species:S:1:pos:R:3:initial_magmoms:R:1 pbc="T T T"
Si       1.44858826      -1.18796455      -1.35859079       0.00000000
Si      -1.34832005      -1.45888354       1.23455303       0.00000000
Si      -1.35434735       1.24256863      -1.45839913       0.00000000
Si       1.42675966       1.35909100       1.27953535       0.00000000
Si      -2.70730028       0.00395847       2.51917186       0.00000000
Si       0.08980677      -2.53244342      -2.70062057       0.00000000
Si      -2.52247411       2.83472490      -0.17235655       0.00000000
Si       0.10039527       2.67491576       2.70006974       0.00000000
Si       0.03958470      -2.79696045       2.60603517       0.00000000
Si       2.75739204      -0.03236823       2.64984464       0.00000000
