10
Lattice="16.290000149 0.0 0.0 0.0 16.290000149 0.0 0.0 0.0 29.1751946751" Properties=species:S:1:pos:R:3:initial_magmoms:R:1 pbc="T T T"
Si       0.81148636      -0.99455338      -1.93705788       0.00000000
Si      -1.33310845      -1.33335280       1.39474936       0.00000000
Si       1.59477472       1.13546188       1.33470681       0.00000000
Si      -1.49885920       1.31198032      -1.30074688       0.00000000
H        1.26615655       0.28856106      -2.60117283       0.00000000
H        0.70068178       1.89312608       2.30702852       0.00000000
Si      -2.53091216       2.80078860       0.16863263       0.00000000
Si      -2.52793109       0.14602356       2.82170813       0.00000000
Si      -1.06267816      -1.69099976      -3.22339221       0.00000000
Si      -2.89388595      -2.45649944      -0.07544705       0.00000000
