10
Lattice="16.290000149 0.0 0.0 0.0 16.290000149 0.0 0.0 0.0 29.1751946751" Properties=species:S:1:pos:R:3:initial_magmoms:R:1 pbc="T T T"
Si       1.41480769       1.38807091      -1.25557201       0.00000000
Si       1.36611688      -1.34741107       1.37219693       0.00000000
Si      -1.28033879       1.34328970       1.45899314       0.00000000
Si      -1.39288787      -1.28288638      -1.43646989       0.00000000
Si      -2.69315568      -2.64098369      -0.00373442       0.00000000
Si      -2.59851078       2.77768775       0.18546671       0.00000000
Si       0.13802028       2.75998540      -2.64399035       0.00000000
Si       2.74117208       0.07224615      -2.67610640       0.00000000
Si       2.71763303      -2.71687880       0.01371234       0.00000000
Si       0.01946003      -2.69521310       2.74054274       0.00000000
