10
Lattice="16.290000149 0.0 0.0 0.0 16.290000149 0.0 0.0 0.0 29.1751946751" Properties=species:S:1:pos:R:3:initial_magmoms:R:1 pbc="T T T"
Si       1.35506737       1.35022924       1.35492522       0.00000000
Si       1.41970609      -1.36357075      -1.27556869       0.00000000
Si      -1.32634810      -1.38600208       1.38249577       0.00000000
Si      -1.34021089       1.34571691      -1.41374241       0.00000000
Si       0.02883330      -2.71399547      -2.55620802       0.00000000
Si      -2.68957676       2.62133795       0.04350022       0.00000000
Si       2.69446376       2.70360245      -0.03183014       0.00000000
Si       2.69975801      -0.02994102       2.71049229       0.00000000
Si       0.01006722       2.68105709       2.74144717       0.00000000
Si      -2.71956665      -0.05623308      -2.71926818       0.00000000
