10
Lattice="16.290000149 0.0 0.0 0.0 16.290000149 0.0 0.0 0.0 29.1751946751" Properties=species:S:1:pos:R:3:initial_magmoms:R:1 pbc="T T T"
Si      -1.34665685      -1.34780203       1.36834581       0.00000000
Si       1.35151615      -1.36946773      -1.35848459       0.00000000
Si      -1.36611688       1.34741107      -1.37219693       0.00000000
Si       1.33092559       1.34586352       1.41458849       0.00000000
Si      -2.64645567       2.69070077       0.08679620       0.00000000
Si       0.04869081       2.73548198      -2.62776894       0.00000000
Si       2.70568757       0.02819799      -2.67799404       0.00000000
Si      -2.71106327      -2.67713120      -0.01172843       0.00000000
Si       2.71943633       2.70498710       0.11112832       0.00000000
Si       0.00433314      -2.70658352       2.72843503       0.00000000
