10
Lattice="16.290000149 0.0 0.0 0.0 16.290000149 0.0 0.0 0.0 29.1751946751" Properties=species:S:1:pos:R:3:initial_magmoms:R:1 pbc="T T T"
Si      -2.06889518       0.72236377      -0.84602230       0.00000000
Si      -0.77866201      -1.50073092       1.70852858       0.00000000
Si       1.04961358      -0.67243329      -2.06933821       0.00000000
Si       0.92084113       2.08186365       0.81322938       0.00000000
H       -1.38636046       2.28276822       1.72982647       0.00000000
Si      -1.31346271       1.30836557      -2.99912249       0.00000000
Si      -2.66807396       2.24310207       0.91038277       0.00000000
H        0.38972196      -3.58700753      -0.53058009       0.00000000
Si      -2.32350788      -2.81113112       0.52051465       0.00000000
Si      -3.35422017      -1.26576396      -0.96108926       0.00000000
