10
Lattice="16.290000149 0.0 0.0 0.0 16.290000149 0.0 0.0 0.0 29.1751946751" Properties=species:S:1:pos:R:3:initial_magmoms:R:1 pbc="T T T"
Si       1.27200482      -1.36089919      -1.42310765       0.00000000
Si       1.35820499       1.41167512       1.31259201       0.00000000
Si      -1.39114304       1.35570268      -1.35110327       0.00000000
Si      -1.29563477      -1.35856972       1.44574760       0.00000000
Si       2.61995998      -2.69654888      -0.04729299       0.00000000
Si      -0.07668664       2.65619855       2.68219235       0.00000000
Si      -2.72201977      -2.62969472       0.04023259       0.00000000
Si       2.61409558       0.00749340      -2.78646449       0.00000000
Si      -0.03550552       2.70280424      -2.74474396       0.00000000
Si      -0.10696975      -2.72256402      -2.75734765       0.00000000
