10
Lattice="16.290000149 0.0 0.0 0.0 16.290000149 0.0 0.0 0.0 29.1751946751" Properties=species:S:1:pos:R:3:initial_magmoms:R:1 pbc="T T T"
Si      -0.51858238      -0.91072504      -2.09154053       0.00000000
Si       2.05558625       1.01059903       0.72226112       0.00000000
Si      -1.40924791       1.95043430       0.01683409       0.00000000
Si      -0.67807126      -1.76945240       1.49937160       0.00000000
H        1.45003807       1.57201759      -2.37944135       0.00000000
Si      -1.92674864      -0.33387984       2.82924700       0.00000000
H        2.85436641      -0.45812367      -1.92337471       0.00000000
Si       0.25363530       1.20523195      -3.26954737       0.00000000
Si       1.05194305       2.25328169       2.56630847       0.00000000
Si      -3.08951256       1.15098625       1.44700213       0.00000000
