10
Lattice="16.290000149 0.0 0.0 0.0 16.290000149 0.0 0.0 0.0 29.1751946751" Properties=species:S:1:pos:R:3:initial_magmoms:R:1 pbc="T T T"
Si       1.38851074       1.35912358      -1.30346017       0.00000000
Si       1.38225538      -1.34576578       1.33619474       0.00000000
Si      -1.31756779       1.37023336       1.38978957       0.00000000
Si      -1.33092559      -1.34586352      -1.41458849       0.00000000
Si       0.01671354       2.71860392      -2.61616888       0.00000000
Si       0.01369989      -2.68960934       2.67904143       0.00000000
Si      -2.67758244      -2.69366555      -0.04624268       0.00000000
Si      -2.66406662       2.73090775       0.03495188       0.00000000
Si       2.71233389       0.00847080      -2.68913604       0.00000000
Si      -2.69349940       0.02208924       2.74013428       0.00000000
