10
Lattice="16.290000149 0.0 0.0 0.0 16.290000149 0.0 0.0 0.0 29.1751946751" Properties=species:S:1:pos:R:3:initial_magmoms:R:1 pbc="T T T"
Si       1.35417142       1.39766572      -1.31950945       0.00000000
Si      -1.35151615       1.36946773       1.35848459       0.00000000
Si       1.37640727      -1.34680834       1.35968077       0.00000000
Si      -1.36363591      -1.36692649      -1.36331892       0.00000000
Si       2.73595440       0.04318479      -2.64504357       0.00000000
Si      -2.70975519      -2.69741225       0.01645481       0.00000000
Si       2.69174333       2.72380205       0.08393703       0.00000000
Si      -2.69817300       0.02166570       2.72683040       0.00000000
Si       0.02093265      -2.69099399       2.73494110       0.00000000
Si      -2.71763303       2.71687880      -0.01371234       0.00000000
