10
Lattice="16.290000149 0.0 0.0 0.0 16.290000149 0.0 0.0 0.0 29.1751946751" Properties=species:S:1:pos:R:3:initial_magmoms:R:1 pbc="T T T"
Si       1.34728075      -1.34762284      -1.36665364       0.00000000
Si      -1.35386191      -1.37485972       1.34293421       0.00000000
Si      -1.35573526       1.32967126      -1.38830164       0.00000000
Si       1.36531378       1.33942897       1.37272208       0.00000000
Si      -2.72727183      -0.01591533       2.66404538       0.00000000
Si      -0.01813077       2.68328882       2.70847920       0.00000000
Si       2.68299560      -2.72308529      -0.01277874       0.00000000
Si      -0.01167993      -2.71275743      -2.69797613       0.00000000
Si      -2.73473264       2.67665879      -0.06660697       0.00000000
Si       2.70979265       2.71107956       0.00994874       0.00000000
