10
Lattice="16.290000149 0.0 0.0 0.0 16.290000149 0.0 0.0 0.0 29.1751946751" Properties=species:S:1:pos:R:3:initial_magmoms:R:1 pbc="T T T"
Si       0.84668905      -1.87579352      -1.11598037       0.00000000
Si       1.48670686       1.25413453       1.37724424       0.00000000
Si      -1.38935782       1.31168710      -1.43159763       0.00000000
Si      -1.31370706      -1.36549297       1.48551339       0.00000000
H        1.38046348      -1.61837893      -2.50229810       0.00000000
H        2.65310345       0.13924692      -2.07464809       0.00000000
Si      -0.00131949       2.54664977       2.71559795       0.00000000
Si      -2.79609708       2.48950298       0.04026177       0.00000000
H       -0.22097385      -0.77458951      -3.67070629       0.00000000
Si       2.53571771      -2.80525206       0.19585308       0.00000000
