10
Lattice="16.290000149 0.0 0.0 0.0 16.290000149 0.0 0.0 0.0 29.1751946751" Properties=species:S:1:pos:R:3:initial_magmoms:R:1 pbc="T T T"
Si      -1.43283583       1.34588307      -1.26308170       0.00000000
Si      -1.38056122      -1.34298019       1.33590299       0.00000000
Si       1.34599384       1.38807743       1.34054184       0.00000000
Si       1.35436690      -1.32646213      -1.40288924       0.00000000
Si      -0.10902897       2.69491988      -2.59498477       0.00000000
Si      -0.01169622      -2.68990256       2.67912895       0.00000000
Si       2.69941592      -2.67387320      -0.03728590       0.00000000
Si       2.70617627       0.03459996       2.69292882       0.00000000
Si      -0.06809220      -2.78689323      -2.62614680       0.00000000
Si      -2.73118142       0.03297096       2.68543079       0.00000000
