10
Lattice="16.290000149 0.0 0.0 0.0 16.290000149 0.0 0.0 0.0 29.1751946751" Properties=species:S:1:pos:R:3:initial_magmoms:R:1 pbc="T T T"
Si       1.31890357       1.34169328       1.39418336       0.00000000
Si      -1.35212051       1.34410420      -1.38294507       0.00000000
Si       1.41711598      -1.38220651      -1.28424539       0.00000000
Si      -1.36936673      -1.36115983       1.36795486       0.00000000
Si       0.03218904      -2.65898414      -2.66253702       0.00000000
Si       2.67346595       2.65724111      -0.00541200       0.00000000
Si       0.13168836       2.54298305      -2.81807290       0.00000000
Si       2.61915509      -2.77918806       0.15828418       0.00000000
Si      -2.84700333      -0.04417848      -2.55513437       0.00000000
Si       2.66779703      -0.02498886       2.75444763       0.00000000
