10
Lattice="16.290000149 0.0 0.0 0.0 16.290000149 0.0 0.0 0.0 29.1751946751" Properties=species:S:1:pos:R:3:initial_magmoms:R:1 pbc="T T T"
Si       1.35434735      -1.24256863       1.45839913       0.00000000
Si      -1.16812675       1.59215627       1.28604258       0.00000000
Si       1.32054560       1.42446277      -1.34544328       0.00000000
Si      -1.45976646      -1.38298843      -1.34955698       0.00000000
Si      -0.51579353       2.59497422      -2.28669341       0.00000000
Si       2.80293562      -2.43053318       0.09980834       0.00000000
Si      -1.44235245       3.40957848      -0.29455277       0.00000000
Si       0.00432337      -2.59256981      -2.68826079       0.00000000
Si      -2.65397008       0.29434401       2.65879676       0.00000000
Si       0.00602730      -2.70145217       2.69295216       0.00000000
