10
Lattice="16.290000149 0.0 0.0 0.0 16.290000149 0.0 0.0 0.0 29.1751946751" Properties=species:S:1:pos:R:3:initial_magmoms:R:1 pbc="T T T"
Si       1.34837218       1.02066625      -1.63252719       0.00000000
Si       1.43459515      -1.62717358       0.92756696       0.00000000
Si      -1.83552464      -1.18532883      -1.00438525       0.00000000
Si      -0.10919187       1.73271845       1.80439827       0.00000000
H       -2.25559487       1.48022344       0.49524893       0.00000000
Si       2.77475718       2.29179125      -0.22701219       0.00000000
Si       0.62644825       0.40273767       3.59123306       0.00000000
Si       2.62475885      -0.48021617       2.62086609       0.00000000
Si      -2.89893585       2.32298660      -0.58385400       0.00000000
Si       0.14375925      -3.06742332       2.20681173       0.00000000
