10
Lattice="16.290000149 0.0 0.0 0.0 16.290000149 0.0 0.0 0.0 29.1751946751" Properties=species:S:1:pos:R:3:initial_magmoms:R:1 pbc="T T T"
Si       1.49024179      -1.26532576      -1.28487557       0.00000000
Si      -1.34200279       1.41454216      -1.37184683       0.00000000
Si      -1.39370725      -1.82439857       0.74653488       0.00000000
Si       1.07103493       1.69126040       1.38442134       0.00000000
H        2.95565437       0.04927725       1.64717314       0.00000000
Si      -2.46837485       2.52944606       0.38134897       0.00000000
Si       0.06385680      -2.53645076      -2.69039058       0.00000000
Si      -0.60619978       3.37157391       1.63392760       0.00000000
Si       2.77859803      -2.61369794       0.21639242       0.00000000
Si      -3.14994846      -0.85463857       2.01066689       0.00000000
