10
Lattice="16.290000149 0.0 0.0 0.0 16.290000149 0.0 0.0 0.0 29.1751946751" Properties=species:S:1:pos:R:3:initial_magmoms:R:1 pbc="T T T"
Si       1.36073629       1.35402481       1.35387491       0.00000000
Si      -1.33062586      -1.35739684       1.38389618       0.00000000
Si       1.38003994      -1.35879778      -1.33470681       0.00000000
Si      -1.36995155       1.34760655      -1.36461138       0.00000000
Si      -2.66614441      -2.73390186       0.03845291       0.00000000
Si      -0.00737937       2.70790301       2.70585343       0.00000000
Si       2.71621091       2.69821046      -0.02138542       0.00000000
Si      -0.02383227       2.67809231      -2.74438511       0.00000000
Si      -2.71748153       0.00381186       2.70801239       0.00000000
Si       2.70857090      -0.00568521       2.72099536       0.00000000
