10
Lattice="16.290000149 0.0 0.0 0.0 16.290000149 0.0 0.0 0.0 29.1751946751" Properties=species:S:1:pos:R:3:initial_magmoms:R:1 pbc="T T T"
Si      -1.36073629      -1.35402481      -1.35387491       0.00000000
Si      -1.36811566       1.35387820       1.35197852       0.00000000
Si       1.34783461      -1.35971002       1.36712045       0.00000000
Si       1.35547462       1.34418565      -1.37526033       0.00000000
Si       2.69084738       2.69575067       0.01835120       0.00000000
Si       0.01930365      -2.71282259      -2.68858171       0.00000000
Si      -2.69136215      -2.71142165       0.03002128       0.00000000
Si      -0.02093265       2.69099399      -2.73494110       0.00000000
Si       2.71371854      -0.00451233       2.71349733       0.00000000
Si      -2.71910565       2.71265969      -0.00811070       0.00000000
