10
Lattice="16.290000149 0.0 0.0 0.0 16.290000149 0.0 0.0 0.0 29.1751946751" Properties=species:S:1:pos:R:3:initial_magmoms:R:1 pbc="T T T"
Si      -0.64334098       0.84276316      -1.07910293       0.00000000
Si       2.14640300       0.25249500       1.30914934       0.00000000
Si       2.25559487      -1.48022344      -0.49524893       0.00000000
Si       0.39016179       1.22225500       2.57328135       0.00000000
Si      -2.07479216       2.06843906       0.20772739       0.00000000
Si       0.42007023      -2.66555227      -1.49963418       0.00000000
Si      -2.08296974      -0.48746196      -2.28937753       0.00000000
Si      -0.68932765      -2.31167157       2.13918362       0.00000000
Si      -1.37616292      -0.26168256       2.90587856       0.00000000
Si       0.85887397       2.20374380      -2.24015897       0.00000000
