10
Lattice="16.290000149 0.0 0.0 0.0 16.290000149 0.0 0.0 0.0 29.1751946751" Properties=species:S:1:pos:R:3:initial_magmoms:R:1 pbc="T T T"
Si      -1.36886500       1.34692237      -1.34322596       0.00000000
Si      -1.37472940      -1.34390872       1.34135875       0.00000000
Si       1.35594703      -1.35146728      -1.36551581       0.00000000
Si       1.35786925       1.36234900       1.35743428       0.00000000
Si       0.01169622       2.68990256      -2.67912895       0.00000000
Si      -0.01272249      -2.73867483       2.64589841       0.00000000
Si       2.71819829      -2.69436602      -0.00344267       0.00000000
Si      -2.72722296       0.02568933       2.69211191       0.00000000
Si      -2.72982935      -2.69703758      -0.01878883       0.00000000
Si       2.71111214       0.01602936      -2.71641485       0.00000000
