10
Lattice="16.290000149 0.0 0.0 0.0 16.290000149 0.0 0.0 0.0 29.1751946751" Properties=species:S:1:pos:R:3:initial_magmoms:R:1 pbc="T T T"
Si      -1.36627489      -1.35106003       1.35075900       0.00000000
Si       1.30627882       1.29546226       1.47428677       0.00000000
Si      -1.36979353       1.41203350      -1.30452507       0.00000000
Si       1.36216981      -1.34749252      -1.39009883       0.00000000
Si       2.66268197       2.63601524       0.15871889       0.00000000
Si       2.70764237      -2.69865029      -0.00016338       0.00000000
Si      -2.72934065       0.02204037       2.70019928       0.00000000
Si      -2.71094924      -2.71942004      -0.01271747       0.00000000
Si      -0.01664838      -2.66903507       2.76140884       0.00000000
Si      -2.78262525       0.11626173      -2.64832170       0.00000000
