10
Lattice="16.290000149 0.0 0.0 0.0 16.290000149 0.0 0.0 0.0 29.1751946751" Properties=species:S:1:pos:R:3:initial_magmoms:R:1 pbc="T T T"
Si      -0.97876837       1.85979674      -0.89524085       0.00000000
Si      -1.76632472      -1.48393756       0.33259722       0.00000000
Si       0.38384127       0.63767206       2.22539632       0.00000000
Si       1.75624121      -0.96976000      -1.26413201       0.00000000
H       -0.39016179      -1.22225500      -2.57328135       0.00000000
Si       1.86540050      -1.23577570       2.57097651       0.00000000
Si       2.49188132      -2.29974077       0.52270279       0.00000000
Si      -2.46495395       0.84618406      -2.36555396       0.00000000
Si      -1.07948944      -3.53392657      -0.43409772       0.00000000
Si      -3.58588515      -0.59526919      -0.81497989       0.00000000
