10
Lattice="16.290000149 0.0 0.0 0.0 16.290000149 0.0 0.0 0.0 29.1751946751" Properties=species:S:1:pos:R:3:initial_magmoms:R:1 pbc="T T T"
Si      -1.56458935       1.28513440      -1.12444118       0.00000000
Si      -1.40976919      -1.42648273       1.16986696       0.00000000
Si       1.06194511      -1.10742679      -1.87042173       0.00000000
Si       1.56077749       1.12314664       1.47019641       0.00000000
Si       2.08686305      -2.44343486      -0.24933121       0.00000000
Si       0.29234034      -3.01997055       1.19399484       0.00000000
Si       0.05341491       2.31449951      -2.51752755       0.00000000
Si       1.83120779       0.76549969      -3.14794515       0.00000000
Si      -2.53583174       2.74108575       0.38610453       0.00000000
Si      -2.35247150      -0.15742656       2.93129016       0.00000000
