10
Lattice="16.290000149 0.0 0.0 0.0 16.290000149 0.0 0.0 0.0 29.1751946751" Properties=species:S:1:pos:R:3:initial_magmoms:R:1 pbc="T T T"
Si       1.36381510       1.36186030      -1.32965950       0.00000000
Si      -1.35011521       1.36480879       1.35597552       0.00000000
Si       1.38321649      -1.33763707       1.35139502       0.00000000
Si      -1.33537276      -1.35156502      -1.39361152       0.00000000
Si       2.70024671      -0.07814313      -2.61952403       0.00000000
Si      -2.69084738      -2.69575067      -0.01835120       0.00000000
Si      -0.02003670       2.71904537      -2.66935526       0.00000000
Si       0.02287116      -2.70026300       2.69514613       0.00000000
Si      -2.71867070       0.02096523       2.69882221       0.00000000
Si       0.01638774       2.72676683       2.70862507       0.00000000
