10
Lattice="16.290000149 0.0 0.0 0.0 16.290000149 0.0 0.0 0.0 29.1751946751" Properties=species:S:1:pos:R:3:initial_magmoms:R:1 pbc="T T T"
Si      -0.97124239       1.45595134       1.51054570       0.00000000
Si       1.56458935      -1.28513440       1.12444118       0.00000000
Si       1.61800426       1.02936511      -1.39308637       0.00000000
Si      -1.90107560      -1.49488444      -0.32355291       0.00000000
H       -0.38551914      -2.34606953      -2.02426253       0.00000000
H        0.76312135      -0.71294815      -3.15127113       0.00000000
H       -2.50085711      -1.58430025      -1.72393308       0.00000000
Si       0.15482016      -2.71161713       2.29430813       0.00000000
Si      -2.66027105       2.38540988       0.19871225       0.00000000
H       -2.12649662       2.64282446      -1.18760547       0.00000000
