10
Lattice="16.290000149 0.0 0.0 0.0 16.290000149 0.0 0.0 0.0 29.1751946751" Properties=species:S:1:pos:R:3:initial_magmoms:R:1 pbc="T T T"
Si      -1.33134913      -1.35506900      -1.38375031       0.00000000
Si       1.33221250      -1.36611362       1.37234281       0.00000000
Si       1.35047359       1.35179145      -1.37397662       0.00000000
Si      -1.37081980       1.33991604       1.36586591       0.00000000
Si      -2.69462666       2.70454565      -0.02681200       0.00000000
Si       0.00206883       2.72386559       2.67586133       0.00000000
Si       2.70266252       0.00610712       2.70261498       0.00000000
Si       2.70186268      -2.70630822      -0.00781895       0.00000000
Si      -2.69135237      -2.71722252      -0.04011589       0.00000000
Si      -2.69153156      -0.00159153      -2.73613728       0.00000000
