10
Lattice="16.290000149 0.0 0.0 0.0 16.290000149 0.0 0.0 0.0 29.1751946751" Properties=species:S:1:pos:R:3:initial_magmoms:R:1 pbc="T T T"
Si      -1.36034533      -1.36262593       1.34375112       0.00000000
Si       1.35509995       1.35312886       1.36014758       0.00000000
Si       1.36935370      -1.37886706      -1.32189890       0.00000000
Si      -1.38321649       1.33763707      -1.35139502       0.00000000
Si      -0.01940139       2.69949737      -2.68105451       0.00000000
Si       2.71710686      -0.04163724       2.66468723       0.00000000
Si      -0.00589698      -2.70500339      -2.68379698       0.00000000
Si      -2.73520506       0.00153126       2.67615308       0.00000000
Si      -0.00930159      -2.73963594       2.68531409       0.00000000
Si       2.72982935       2.69703758       0.01878883       0.00000000
