10
Lattice="16.290000149 0.0 0.0 0.0 16.290000149 0.0 0.0 0.0 29.1751946751" Properties=species:S:1:pos:R:3:initial_magmoms:R:1 pbc="T T T"
Si       1.27678741      -1.37191449       1.38841834       0.00000000
Si      -1.34608197      -1.21210535      -1.48400795       0.00000000
Si      -1.42403402       1.30147001       1.36445675       0.00000000
Si       1.33313452       1.40864192      -1.35265830       0.00000000
Si      -1.62030767       0.60531686      -3.06460329       0.00000000
Si      -0.29738047       2.58787504      -2.57513105       0.00000000
Si       2.60315180      -2.68773925      -0.03211605       0.00000000
Si      -2.83192530      -2.50991761      -0.11125377       0.00000000
Si      -0.06842126       2.70646624       2.67783357       0.00000000
Si       2.57573573      -0.04292904       2.81460689       0.00000000
