10
Lattice="16.290000149 0.0 0.0 0.0 16.290000149 0.0 0.0 0.0 29.1751946751" Properties=species:S:1:pos:R:3:initial_magmoms:R:1 pbc="T T T"
Si      -1.28829466      -1.41029047      -1.31845622       0.00000000
Si       1.41644809      -1.22386771       1.37768187       0.00000000
Si      -1.34102539       1.30129408       1.42407043       0.00000000
Si       1.46549728       1.38183184      -1.21546779       0.00000000
Si       2.08127558       0.65332675       2.67373154       0.00000000
Si       0.43000713       2.30760884       2.57759927       0.00000000
Si      -2.61060284      -0.03608235      -2.65351313       0.00000000
Si       0.11842993       2.73463491      -2.60172716       0.00000000
Si      -2.60760548      -2.73715985       0.12297345       0.00000000
Si       0.10395952      -2.71135649       2.64939943       0.00000000
