10
Lattice="16.290000149 0.0 0.0 0.0 16.290000149 0.0 0.0 0.0 29.1751946751" Properties=species:S:1:pos:R:3:initial_magmoms:R:1 pbc="T T T"
Si       0.64619173       0.82666864      -1.07682726       0.00000000
H       -1.43873281      -0.91109971      -0.54861036       0.00000000
H       -0.63128638      -1.65925055       1.10480627       0.00000000
Si      -2.24800373       0.95216680       1.63331492       0.00000000
Si       0.55439758      -2.17127783       1.90382733       0.00000000
Si       1.92184535       2.28957581       0.22158560       0.00000000
Si       1.88366159      -0.53957367      -2.49474172       0.00000000
Si      -2.53425161       1.83881522      -0.60766095       0.00000000
Si      -0.93294460       1.91254376      -2.39860946       0.00000000
Si      -2.28332045      -1.84510316      -1.35863047       0.00000000
