10
Lattice="16.290000149 0.0 0.0 0.0 16.290000149 0.0 0.0 0.0 29.1751946751" Properties=species:S:1:pos:R:3:initial_magmoms:R:1 pbc="T T T"
Si       1.05871969      -1.46509003      -1.47874474       0.00000000
Si      -1.31487994      -1.35695701       1.38564670       0.00000000
Si      -1.44655201       1.35208630      -1.28350434       0.00000000
Si       1.81524359       0.75463426       1.38357526       0.00000000
Si       2.15668199      -1.19568601       2.75600559       0.00000000
Si       0.28409760      -2.65882124       2.59735088       0.00000000
Si       2.43424730      -0.14569776      -2.83585810       0.00000000
Si      -2.70106121       0.12066003       2.60026840       0.00000000
Si       2.28133307      -2.99833743      -0.23649413       0.00000000
Si      -0.14423166       2.58874166      -2.78363450       0.00000000
