10
Lattice="16.290000149 0.0 0.0 0.0 16.290000149 0.0 0.0 0.0 29.1751946751" Properties=species:S:1:pos:R:3:initial_magmoms:R:1 pbc="T T T"
Si       0.97876837      -1.85979674       0.89524085       0.00000000
Si      -1.48618558      -1.01361268      -1.47031311       0.00000000
Si      -1.61083666       0.78903874       1.52218661       0.00000000
Si       1.66034198       1.52428789      -0.73407707       0.00000000
H        0.90507241       2.07594875       1.76276526       0.00000000
H        0.25633944       2.50172048       1.72046123       0.00000000
H       -0.89230105       0.86859910       2.84746983       0.00000000
Si      -1.95227507       2.73935900       0.14975627       0.00000000
Si       0.17311383       3.32417001      -0.85249919       0.00000000
Si      -0.05473440      -2.23928858      -2.75714342       0.00000000
