10
Lattice="16.290000149 0.0 0.0 0.0 16.290000149 0.0 0.0 0.0 29.1751946751" Properties=species:S:1:pos:R:3:initial_magmoms:R:1 pbc="T T T"
Si       1.33076269      -1.41921413      -1.28796814       0.00000000
Si      -1.34939845      -1.37254328       1.33826618       0.00000000
Si       1.38489436       1.35149986       1.32519569       0.00000000
Si      -1.30854313       1.34962651      -1.41079571       0.00000000
Si       2.65456955      -0.07017732      -2.61987121       0.00000000
Si       0.01330893       2.69672807       2.66427878       0.00000000
Si      -2.68379381       2.70034445      -0.06260997       0.00000000
Si      -2.70863606      -0.01575243       2.67944988       0.00000000
Si      -2.73243576      -0.05385474      -2.65877342       0.00000000
Si       0.03241710      -2.73212624       2.66054435       0.00000000
