10
Lattice="16.290000149 0.0 0.0 0.0 16.290000149 0.0 0.0 0.0 29.1751946751" Properties=species:S:1:pos:R:3:initial_magmoms:R:1 pbc="T T T"
Si       1.34118829       1.33278265      -1.37333476       0.00000000
Si      -1.43883055       1.37059174       1.23227270       0.00000000
Si       1.34192134      -1.34674318       1.38375031       0.00000000
Si      -1.38334681      -1.35022924      -1.34036679       0.00000000
Si      -0.16029360      -2.70772382       2.54480636       0.00000000
Si       2.70075170       2.64093482       0.01639646       0.00000000
Si      -0.01301571      -2.73737163      -2.65123747       0.00000000
Si      -2.81435817       0.05119947       2.58938605       0.00000000
Si       2.71459820      -0.02616174      -2.69444593       0.00000000
Si      -0.01554066       2.66747123      -2.75081241       0.00000000
