10
Lattice="16.290000149 0.0 0.0 0.0 16.290000149 0.0 0.0 0.0 29.1751946751" Properties=species:S:1:pos:R:3:initial_magmoms:R:1 pbc="T T T"
Si      -1.42939864       1.44391303       1.12146531       0.00000000
Si      -1.35956341      -1.30815217      -1.38973122       0.00000000
Si       1.34957764       1.39105198      -1.34529740       0.00000000
Si       1.33141429      -1.31535235       1.44300513       0.00000000
H       -0.58481101       2.37791648       1.93148541       0.00000000
Si      -2.70075170      -2.64093482      -0.01639646       0.00000000
Si       0.01384650      -2.66709656      -2.71084239       0.00000000
Si       2.71713944      -2.66558159       0.08840084       0.00000000
Si       2.73302220       0.04719213      -2.68105451       0.00000000
Si      -2.72450252       2.73774630      -0.30523089       0.00000000
