10
Lattice="16.290000149 0.0 0.0 0.0 16.290000149 0.0 0.0 0.0 29.1751946751" Properties=species:S:1:pos:R:3:initial_magmoms:R:1 pbc="T T T"
H        0.64334098      -0.84276316       1.07910293       0.00000000
Si      -1.43145118       1.22567590       1.28683031       0.00000000
Si      -1.43962876      -1.33022512      -1.21027460       0.00000000
Si       1.50221494       1.36098064      -1.16105605       0.00000000
Si       0.05473440       2.23928858       2.75714342       0.00000000
Si       0.08151516      -2.64722765      -2.40739119       0.00000000
Si       1.06341121      -3.50831543      -0.42053126       0.00000000
Si       0.16029360       2.70772382      -2.54480636       0.00000000
Si       2.78974398      -0.59026816       2.38825226       0.00000000
Si      -2.68053581       0.05916528      -2.58255906       0.00000000
