10
Lattice="16.290000149 0.0 0.0 0.0 16.290000149 0.0 0.0 0.0 29.1751946751" Properties=species:S:1:pos:R:3:initial_magmoms:R:1 pbc="T T T"
Si       1.32864499       1.32195469       1.34804862       0.00000000
Si      -1.41393943       1.35661981      -1.25432039       0.00000000
Si       1.23325075      -1.20566527      -1.59266221       0.00000000
Si      -1.45432234      -1.44501424       1.21775220       0.00000000
Si      -2.45117261      -0.50824149      -2.19742315       0.00000000
Si      -0.70962499      -2.05611730      -2.65259265       0.00000000
Si       2.64114203       2.60572236      -0.11695169       0.00000000
Si       2.64681698      -0.11244336       2.62157505       0.00000000
Si      -0.11637576       2.65858341       2.62277123       0.00000000
Si       2.53426790      -2.73861944      -0.27388798       0.00000000
