10
Lattice="16.290000149 0.0 0.0 0.0 16.290000149 0.0 0.0 0.0 29.1751946751" Properties=species:S:1:pos:R:3:initial_magmoms:R:1 pbc="T T T"
Si      -1.37217187       1.35653347       1.33205186       0.00000000
Si      -1.37257912      -1.34812783      -1.34246741       0.00000000
Si       1.34936587       1.36435267      -1.35763851       0.00000000
Si       1.36844146      -1.34490241       1.36359025       0.00000000
Si      -0.00477297       2.71467965       2.66115703       0.00000000
Si      -0.01334151      -2.70491869      -2.68365111       0.00000000
Si       2.71829603      -2.69449309      -0.00997792       0.00000000
Si      -2.70417260       0.02218698      -2.71180517       0.00000000
Si       2.72095130       0.01912446      -2.69672159       0.00000000
Si      -2.71837748      -2.70313330       0.02208562       0.00000000
