10
Lattice="16.290000149 0.0 0.0 0.0 16.290000149 0.0 0.0 0.0 29.1751946751" Properties=species:S:1:pos:R:3:initial_magmoms:R:1 pbc="T T T"
Si       1.53124372       0.72982459       1.60521921       0.00000000
Si      -1.21906216      -1.30733767       1.50646118       0.00000000
Si       0.62648083      -1.06396507      -2.04827372       0.00000000
Si      -1.48155922       1.87344776      -0.34558018       0.00000000
H        1.87712930      -1.84218562       0.72818368       0.00000000
H        3.09218412       0.34008633      -1.00870318       0.00000000
Si      -1.86540050       1.23577570      -2.57097651       0.00000000
Si       0.30050163       2.58167180       2.28062497       0.00000000
Si       3.15734412       1.41359734       0.05470349       0.00000000
Si      -2.55459782       0.24379614       2.65643065       0.00000000
