10
Lattice="16.290000149 0.0 0.0 0.0 16.290000149 0.0 0.0 0.0 29.1751946751" Properties=species:S:1:pos:R:3:initial_magmoms:R:1 pbc="T T T"
Si       0.53504505      -0.66940498       2.23114384       0.00000000
Si      -2.01078875       1.35913987       0.08119457       0.00000000
Si       1.15918012       2.05903973      -0.60103819       0.00000000
Si      -1.21924135      -1.58053726      -1.42048188       0.00000000
Si       2.19792827      -1.41460732      -1.05523762       0.00000000
H       -1.03568563       1.11593017      -2.40882077       0.00000000
H       -2.66248649      -1.28808289      -0.99061456       0.00000000
H       -1.55611855       2.64225431      -0.58292039       0.00000000
Si      -0.00291591       2.22356873      -2.62139124       0.00000000
H        3.39433104      -1.04782168      -0.16513160       0.00000000
