10
Lattice="16.290000149 0.0 0.0 0.0 16.290000149 0.0 0.0 0.0 29.1751946751" Properties=species:S:1:pos:R:3:initial_magmoms:R:1 pbc="T T T"
Si      -1.23325075       1.20566527       1.59266221       0.00000000
Si      -1.94287574      -0.85045204      -1.05993045       0.00000000
Si       1.48584333       1.29781226      -1.37275418       0.00000000
Si       1.30101715      -1.53295417       1.31877423       0.00000000
H       -0.85327021      -2.55609650      -1.85227768       0.00000000
Si      -2.64719018       2.56228507       0.33834182       0.00000000
Si       2.65397008      -0.29434401      -2.65879676       0.00000000
Si       2.83192530       2.50991761       0.11125377       0.00000000
Si      -3.68442336       0.69742378      -0.60476094       0.00000000
Si       2.69390502      -0.25006779       2.75524412       0.00000000
