10
Lattice="16.290000149 0.0 0.0 0.0 16.290000149 0.0 0.0 0.0 29.1751946751" Properties=species:S:1:pos:R:3:initial_magmoms:R:1 pbc="T T T"
Si       1.35254242      -1.39520756      -1.29266535       0.00000000
Si       1.38911347       1.34457661       1.32977620       0.00000000
Si      -1.32823774      -1.38290372       1.35845541       0.00000000
Si      -1.29161456       1.35418771      -1.42943866       0.00000000
Si      -2.64952861       2.68193675      -0.03005045       0.00000000
Si       2.69690726      -0.06384051      -2.63910934       0.00000000
Si       0.02826315       2.70062138       2.68038349       0.00000000
Si      -2.64722733      -0.05080851      -2.74281548       0.00000000
Si      -2.70905960      -0.03362256       2.69748015       0.00000000
Si      -2.64155238      -2.76897423      -0.00428875       0.00000000
