10
Lattice="16.290000149 0.0 0.0 0.0 16.290000149 0.0 0.0 0.0 29.1751946751" Properties=species:S:1:pos:R:3:initial_magmoms:R:1 pbc="T T T"
Si      -1.22420980       1.32357880      -1.51509703       0.00000000
Si       1.34161183       1.45398025       1.29222772       0.00000000
Si      -1.61800426      -1.02936511       1.39308637       0.00000000
Si       1.77779288      -1.54899982      -0.63041761       0.00000000
H       -0.85488292      -1.74231326      -1.75818476       0.00000000
H       -0.20614995      -2.16808499      -1.71588072       0.00000000
H        1.34579836       0.61657651      -2.84983302       0.00000000
Si      -0.05341491      -2.31449951       2.51752755       0.00000000
Si       0.03303612       1.07655724      -3.45402212       0.00000000
Si       1.00853020      -3.42192630       0.64710582       0.00000000
