10
Lattice="16.290000149 0.0 0.0 0.0 16.290000149 0.0 0.0 0.0 29.1751946751" Properties=species:S:1:pos:R:3:initial_magmoms:R:1 pbc="T T T"
Si       0.61364431      -1.30579012       0.43999111       0.00000000
Si      -1.51483481       1.46926027       0.63132204       0.00000000
H        2.01474722       0.34681410      -1.41292550       0.00000000
Si       1.10840419       1.24685290      -2.22043654       0.00000000
Si      -0.03583800       2.67357998      -0.75607517       0.00000000
Si      -2.83114045      -0.23130171      -0.50621880       0.00000000
Si      -1.61327039      -1.51642634      -2.11216739       0.00000000
Si      -0.22447620       1.62492751       2.65602220       0.00000000
Si      -0.23363118      -2.96776110      -0.95493330       0.00000000
Si       2.92123686      -1.21862233       0.08157384       0.00000000
