10
Lattice="16.290000149 0.0 0.0 0.0 16.290000149 0.0 0.0 0.0 29.1751946751" Properties=species:S:1:pos:R:3:initial_magmoms:R:1 pbc="T T T"
Si       0.11730429      -2.30519466      -0.23544382       0.00000000
Si      -1.74716768      -0.32259739       1.49228203       0.00000000
Si      -0.98189605       0.86108778      -1.98685993       0.00000000
Si       1.83552464       1.18532883       1.00438525       0.00000000
H       -0.42007023       2.66555227       1.49963418       0.00000000
Si      -2.50303997       2.17809031      -0.78974334       0.00000000
Si       1.71861131      -2.23146612      -2.02639232       0.00000000
Si      -1.06341121       3.50831543       0.42053126       0.00000000
Si       0.40355217      -3.19184308       2.00553206       0.00000000
Si      -3.66502197       0.73803800       0.71397536       0.00000000
