10
Lattice="10.86 0.0 0.0 0.0 10.86 0.0 0.0 0.0 10.86" Properties=species:S:1:pos:R:3:initial_magmoms:R:1 pbc="T T T"
Si      -1.35750000       1.35750000      -1.35750000       0.00000000
Si       1.35750000      -1.35750000      -1.35750000       0.00000000
Si       1.35750000       1.35750000       1.35750000       0.00000000
Si      -1.35750000      -1.35750000       1.35750000       0.00000000
Si       2.68389696       2.62836978      -0.09107196       0.00000000
Si       2.77406754      -2.57817486      -0.07327242       0.00000000
Si      -0.01402026       2.55191538       2.84168190       0.00000000
Si      -0.00304080      -2.59880886       2.82556566       0.00000000
Si      -2.71500000       0.00000000       2.71500000       0.00000000
Si       0.00000000      -2.71500000      -2.71500000       0.00000000
