10
Lattice="10.86 0.0 0.0 0.0 10.86 0.0 0.0 0.0 10.86" Properties=species:S:1:pos:R:3:initial_magmoms:R:1 pbc="T T T"
Si      -1.47931662       1.13256768      -1.20075762       0.00000000
Si       1.23568338      -1.58243232      -1.20075762       0.00000000
Si       1.53897060       1.13099298       1.69079340       0.00000000
Si      -1.47931662      -1.58243232       1.51424238       0.00000000
Si      -0.12181662       2.49006768      -2.55825762       0.00000000
Si       2.58949098       2.45235090       0.30631716       0.00000000
Si       2.59318338      -0.22493232      -2.55825762       0.00000000
Si      -0.02579250       2.69483298       2.61381738       0.00000000
Si      -2.83681662       2.49006768       0.15674238       0.00000000
Si      -2.83681662      -0.22493232      -2.55825762       0.00000000
