10
Lattice="10.86 0.0 0.0 0.0 10.86 0.0 0.0 0.0 10.86" Properties=species:S:1:pos:R:3:initial_magmoms:R:1 pbc="T T T"
Si      -1.45352412       1.15273470      -1.09957500       0.00000000
Si       1.26147588       1.15273470       1.61542500       0.00000000
Si       1.56476310      -1.56384000      -0.92302398       0.00000000
Si      -1.45352412      -1.56226530       1.61542500       0.00000000
Si       2.61528348      -0.24248208      -2.30750022       0.00000000
Si      -0.09602412       2.51023470      -2.45707500       0.00000000
Si       2.61897588       2.51023470       0.25792500       0.00000000
Si      -2.81102412      -0.20476530      -2.45707500       0.00000000
Si       0.02579250      -2.69483298      -2.61381738       0.00000000
Si      -2.81102412       2.51023470       0.25792500       0.00000000
