10
Lattice="10.86 0.0 0.0 0.0 10.86 0.0 0.0 0.0 10.86" Properties=species:S:1:pos:R:3:initial_magmoms:R:1 pbc="T T T"
Si       1.56104898      -1.11505050      -1.56010416       0.00000000
Si      -1.15395102       1.59994950      -1.56010416       0.00000000
Si       1.56104898       1.59994950       1.15489584       0.00000000
Si      -2.47940316       0.35685960       2.35231944       0.00000000
Si       0.32004420      -2.61677130       2.60522712       0.00000000
Si      -2.51514342       0.20473272      -2.76802938       0.00000000
Si       2.91854898      -2.47255050      -0.20260416       0.00000000
Si       2.91854898       0.24244950       2.51239584       0.00000000
Si      -2.51145102       2.95744950      -0.20260416       0.00000000
Si       0.20354898       2.95744950       2.51239584       0.00000000
