10
Lattice="16.28999089631971 0.0 0.0 0.0 16.28999089631971 0.0 0.0 0.0 34.26581377546328" Properties=species:S:1:pos:R:3:initial_magmoms:R:1 pbc="T T T"
Si      -1.35561114       1.35760049      -1.35932559       0.00000000
Si       1.36043426      -1.35735837      -1.35822909       0.00000000
Si      -1.34881821      -1.37820957       1.35374026       0.00000000
Si       1.38646243       1.35456240       1.35781790       0.00000000
Si      -2.60847504      -0.00142764       2.74445336       0.00000000
Si       2.71331225      -2.71433166       0.00407763       0.00000000
Si      -2.71292652      -0.00149849      -2.71553299       0.00000000
Si      -2.71064592      -2.71791546      -0.00256994       0.00000000
Si       0.00239486       2.71408997      -2.71556726       0.00000000
Si      -2.71564695       2.71433432      -0.00219301       0.00000000
