10
Lattice="16.28999089631971 0.0 0.0 0.0 16.28999089631971 0.0 0.0 0.0 34.26581377546328" Properties=species:S:1:pos:R:3:initial_magmoms:R:1 pbc="T T T"
Si       1.30335964       1.03695624      -1.61971166       0.00000000
Si      -1.98069525      -0.50924169      -1.12936759       0.00000000
Si      -1.01842311       1.23271317       1.71294899       0.00000000
Si       0.80144845      -2.20607325       0.28348124       0.00000000
Si      -2.89418958      -0.15249069       2.09528715       0.00000000
Si       0.07493074      -2.61255762       2.48982395       0.00000000
Si       2.11496002      -0.70649730      -2.97146450       0.00000000
Si       1.20164488      -0.70250625       3.44518964       0.00000000
Si      -0.11100983      -3.41251065      -1.55282475       0.00000000
Si      -1.65937500       0.08928549      -3.38392233       0.00000000
