10
Lattice="16.28999089631971 0.0 0.0 0.0 16.28999089631971 0.0 0.0 0.0 34.26581377546328" Properties=species:S:1:pos:R:3:initial_magmoms:R:1 pbc="T T T"
Si      -0.19346004      -0.18122625       2.27011143       0.00000000
Si      -0.88912449       2.19120048       0.13942767       0.00000000
Si       2.28257109       0.50143878      -0.43281174       0.00000000
Si      -1.12671414      -1.91005137      -0.95536569       0.00000000
Si      -2.22006799       1.93521942      -1.73224065       0.00000000
Si      -0.40019643      -1.50356700      -3.16170840       0.00000000
Si       1.00488123       3.56717673       0.03173016       0.00000000
Si      -1.20164488       0.70250625      -3.44518964       0.00000000
Si       3.20802228      -1.29674916      -1.55851288       0.00000000
Si       0.62545455      -2.17710963       3.09691171       0.00000000
