10
Lattice="16.28999089631971 0.0 0.0 0.0 16.28999089631971 0.0 0.0 0.0 34.26581377546328" Properties=species:S:1:pos:R:3:initial_magmoms:R:1 pbc="T T T"
Si       1.81991880       1.24916607      -0.69443137       0.00000000
Si      -2.13752493       0.51764733      -0.81933033       0.00000000
Si      -0.34305111      -0.47384352       2.31873465       0.00000000
Si       0.64897731      -1.77114654      -1.47949587       0.00000000
Si       3.35329650      -0.50406147      -0.29612533       0.00000000
Si      -2.91429729      -1.75225014      -0.86617172       0.00000000
Si      -2.96559450       1.64853171       1.12700324       0.00000000
Si      -1.07031816      -3.27348853      -1.00556513       0.00000000
Si      -2.63748132      -0.16055424       2.60917185       0.00000000
Si       0.84577680      -0.56277063      -3.60181876       0.00000000
