10
Lattice="16.28999089631971 0.0 0.0 0.0 16.28999089631971 0.0 0.0 0.0 34.26581377546328" Properties=species:S:1:pos:R:3:initial_magmoms:R:1 pbc="T T T"
Si       0.22110417       1.28365884       1.93077689       0.00000000
Si       0.58298652       0.96997046      -2.04481358       0.00000000
Si      -2.28046968      -0.61159862      -0.18846208       0.00000000
Si       1.49494959      -1.83598760       0.08210094       0.00000000
Si      -0.60618348      -0.52237829      -3.51447515       0.00000000
Si      -0.37698318      -0.27832151       3.57567393       0.00000000
Si       2.90072772       0.61552449      -2.17396150       0.00000000
Si      -2.35610415      -2.67130622       0.99281824       0.00000000
Si      -2.76897420      -0.30549323      -2.54050312       0.00000000
Si      -0.70913628      -2.46738800       2.79482413       0.00000000
