10
Lattice="16.28999089631971 0.0 0.0 0.0 16.28999089631971 0.0 0.0 0.0 34.26581377546328" Properties=species:S:1:pos:R:3:initial_magmoms:R:1 pbc="T T T"
Si      -1.35671265      -1.35620766      -1.35661859       0.00000000
Si       1.35438318      -1.35314514       1.36240952       0.00000000
Si      -1.35387819       1.35920502       1.35918853       0.00000000
Si       1.35795069       1.35892809      -1.35600181       0.00000000
Si      -2.71445157      -2.71115610       0.00085665       0.00000000
Si      -2.71383255       0.00110772      -2.71385397       0.00000000
Si       0.00146610      -2.71392540      -2.71419663       0.00000000
Si      -2.72859129      -0.00449604       2.69994204       0.00000000
Si       0.00066789       2.71642266      -2.71340851       0.00000000
Si       2.71640637       0.00068418      -2.71405956       0.00000000
