10
Lattice="16.28999089631971 0.0 0.0 0.0 16.28999089631971 0.0 0.0 0.0 34.26581377546328" Properties=species:S:1:pos:R:3:initial_magmoms:R:1 pbc="T T T"
Si      -1.35638685       1.35435060       1.35785216       0.00000000
Si      -1.35710361      -1.35799956      -1.35658433       0.00000000
Si       1.35850455       1.35733167      -1.35624167       0.00000000
Si       1.36050822      -1.35697329       1.35925706       0.00000000
Si      -0.01420488      -2.72067435       2.70001057       0.00000000
Si      -2.70026135      -0.00236205       2.72242043       0.00000000
Si       0.00052128       2.71463076      -2.71333998       0.00000000
Si      -2.71473664       0.00000000      -2.71344278       0.00000000
Si      -2.71364847       2.71466334       0.00154196       0.00000000
Si       2.71505430       0.00024435      -2.71333998       0.00000000
