10
Lattice="16.28999089631971 0.0 0.0 0.0 16.28999089631971 0.0 0.0 0.0 34.26581377546328" Properties=species:S:1:pos:R:3:initial_magmoms:R:1 pbc="T T T"
Si       1.88305884       0.90901458      -1.27904075       0.00000000
Si      -0.96040953      -1.84065597      -1.31018839       0.00000000
Si       0.21170484      -0.91254951       2.28570239       0.00000000
Si      -1.88884179       1.90500147      -0.09628699       0.00000000
Si      -2.15930466      -0.54283167      -2.80219128       0.00000000
Si       0.56863503       2.18308806      -2.78546956       0.00000000
Si       2.65303827       2.60327232       0.23180836       0.00000000
Si      -2.52333729      -2.89667151       0.25908396       0.00000000
Si      -3.51036468       0.75175092      -1.40883972       0.00000000
Si      -0.79197093       3.56786838      -1.44879368       0.00000000
