10
Lattice="16.28999089631971 0.0 0.0 0.0 16.28999089631971 0.0 0.0 0.0 34.26581377546328" Properties=species:S:1:pos:R:3:initial_magmoms:R:1 pbc="T T T"
Si       0.04241916       2.26424484       0.72431118       0.00000000
Si       1.56792879      -1.13669991       1.46006714       0.00000000
Si      -2.38887963      -0.11313405      -0.41238930       0.00000000
Si       0.88593165      -0.75689856      -2.14312225       0.00000000
Si      -2.27203146       0.62540568      -2.70977633       0.00000000
Si       1.79155791      -3.24356706       0.42496486       0.00000000
Si       2.29039029       2.91400407       0.63772142       0.00000000
Si      -3.01280292      -2.31629139       0.11945069       0.00000000
Si       2.72173320       0.64866780      -2.58463751       0.00000000
Si      -0.46837008       3.77840034      -1.08821432       0.00000000
