10
Lattice="16.28999089631971 0.0 0.0 0.0 16.28999089631971 0.0 0.0 0.0 34.26581377546328" Properties=species:S:1:pos:R:3:initial_magmoms:R:1 pbc="T T T"
Si       1.56292776       1.05601554      -1.56927235       0.00000000
Si      -0.91821843      -1.67938008      -1.57417236       0.00000000
Si       1.46074059      -0.13088363       2.03172403       0.00000000
Si      -2.05640073       1.09071324       1.34849759       0.00000000
Si      -2.60967592      -2.68394759      -0.24715945       0.00000000
Si      -0.09956448       0.10707417       3.81060048       0.00000000
Si      -2.30946262      -0.35754595      -3.04400527       0.00000000
Si       2.52333729       2.89667151      -0.25908396       0.00000000
Si       0.36403263       2.35383984      -3.06127525       0.00000000
Si      -2.71765093       2.77641873      -0.32621073       0.00000000
