10
Lattice="16.28999089631971 0.0 0.0 0.0 16.28999089631971 0.0 0.0 0.0 34.26581377546328" Properties=species:S:1:pos:R:3:initial_magmoms:R:1 pbc="T T T"
Si       1.35415512       1.35726651      -1.38666973       0.00000000
Si      -1.35962856      -1.35637056      -1.38776623       0.00000000
Si      -1.27262367       1.37352393       1.53281350       0.00000000
Si       1.41146334      -1.40344866       1.42789152       0.00000000
Si      -2.70659979      -0.13483233       2.63829781       0.00000000
Si      -2.70207117       2.71191033      -0.00164476       0.00000000
Si       2.70558981       2.71880100      -0.00870352       0.00000000
Si      -2.72935692      -2.70205488      -0.04437425       0.00000000
Si       2.71686249      -2.72354139      -0.02055950       0.00000000
Si       2.71230129       0.00081450      -2.74839393       0.00000000
