10
Lattice="16.28999089631971 0.0 0.0 0.0 16.28999089631971 0.0 0.0 0.0 34.26581377546328" Properties=species:S:1:pos:R:3:initial_magmoms:R:1 pbc="T T T"
Si       1.22362335       0.24503418       2.01164425       0.00000000
Si       1.56030507      -0.23795780      -1.77887645       0.00000000
Si      -1.51954749       1.82845476      -0.14079831       0.00000000
Si      -0.95198760      -2.18589713       0.13298570       0.00000000
Si      -1.95683625       0.98363907      -2.46210289       0.00000000
Si       0.09956448      -0.10707417      -3.81060048       0.00000000
Si       3.06760248      -1.27620421       1.87225085       0.00000000
Si       2.00039571       2.51493165       2.05848565       0.00000000
Si      -2.11985517      -2.27288573       2.22275605       0.00000000
Si       2.83460661       1.87704783      -1.78398206       0.00000000
