10
Lattice="16.28999089631971 0.0 0.0 0.0 16.28999089631971 0.0 0.0 0.0 34.26581377546328" Properties=species:S:1:pos:R:3:initial_magmoms:R:1 pbc="T T T"
Si      -0.97528230       2.04581223      -0.64683613       0.00000000
Si       2.16969768       0.28590579       0.99823224       0.00000000
Si      -0.99707832      -0.87114033       2.02696108       0.00000000
Si      -0.26969724      -0.80974332      -2.38418239       0.00000000
Si      -3.15475398       1.31144274      -1.25673369       0.00000000
Si       3.14748864       2.10893598      -0.07634428       0.00000000
Si       1.95564708      -0.65449962      -3.24041702       0.00000000
Si      -2.05356627      -2.89784439       1.49094066       0.00000000
Si       0.56163033      -1.00051551       3.83873273       0.00000000
Si      -0.63131895       2.64683178      -2.95440011       0.00000000
