10
Lattice="16.28999089631971 0.0 0.0 0.0 16.28999089631971 0.0 0.0 0.0 34.26581377546328" Properties=species:S:1:pos:R:3:initial_magmoms:R:1 pbc="T T T"
Si      -0.49122495       0.65754585      -2.16947268       0.00000000
Si       0.02790477       1.79837757       1.48758260       0.00000000
Si      -2.26452177      -0.76934412       0.16814244       0.00000000
Si       1.97552088      -1.40089113       0.06558480       0.00000000
Si      -1.59008319      -2.10499380      -1.62670189       0.00000000
Si       0.21799278       0.81015057       3.64125874       0.00000000
Si      -1.47939264       2.83662398      -2.16354469       0.00000000
Si       1.74720024       3.30071957       1.01365187       0.00000000
Si       1.75218498      -3.39250653      -1.14742568       0.00000000
Si       3.79060155      -0.64052280      -1.27790997       0.00000000
