10
Lattice="16.28999089631971 0.0 0.0 0.0 16.28999089631971 0.0 0.0 0.0 34.26581377546328" Properties=species:S:1:pos:R:3:initial_magmoms:R:1 pbc="T T T"
Si      -0.19008801       0.98822700      -2.15367613       0.00000000
Si      -2.16279072       0.21688506       0.97397204       0.00000000
Si       1.18917000       1.49234875       1.46966157       0.00000000
Si       0.53967141      -2.40336144       0.05777219       0.00000000
Si       0.60618348       0.52237829       3.51447515       0.00000000
Si      -2.79485901       2.37924314       0.25952942       0.00000000
Si      -1.67428620      -0.08922033       3.32601307       0.00000000
Si      -0.21799278      -0.81015057      -3.64125874       0.00000000
Si      -2.03406714       2.50946540      -2.01428272       0.00000000
Si       3.50691120       1.13790278       1.34051365       0.00000000
