10
Lattice="16.28999089631971 0.0 0.0 0.0 16.28999089631971 0.0 0.0 0.0 34.26581377546328" Properties=species:S:1:pos:R:3:initial_magmoms:R:1 pbc="T T T"
Si       1.73802897      -0.69305805      -1.46938745       0.00000000
Si       0.57619359      -0.65060631       2.22104276       0.00000000
Si      -1.88278191      -1.40248755      -0.51515253       0.00000000
Si      -0.53967141       2.40336144      -0.05777219       0.00000000
Si       3.73700745       0.24382872      -0.71190694       0.00000000
Si       1.21785669       0.19231974      -3.63344613       0.00000000
Si      -2.70246213       2.62024650       0.91619984       0.00000000
Si      -2.70602964      -2.35107054       1.54926110       0.00000000
Si      -1.36414089      -1.54375443       3.32382006       0.00000000
Si      -3.65884803      -0.25099632      -1.53432120       0.00000000
