10
Lattice="16.28999089631971 0.0 0.0 0.0 16.28999089631971 0.0 0.0 0.0 34.26581377546328" Properties=species:S:1:pos:R:3:initial_magmoms:R:1 pbc="T T T"
Si      -1.35482301       1.35566059      -1.35798922       0.00000000
Si       1.35580041       1.35664939       1.35750950       0.00000000
Si       1.35356868      -1.35887636      -1.35942839       0.00000000
Si      -1.35829278      -1.35763832       1.35678992       0.00000000
Si       2.71262709       2.71317471       0.00013706       0.00000000
Si      -0.00091224       2.71389147       2.71443649       0.00000000
Si       2.71401174      -0.00143635       2.71471061       0.00000000
Si       0.00752598       2.70775014      -2.72132049       0.00000000
Si       0.01466100      -2.70480503      -2.72436330       0.00000000
Si      -2.71578735       2.71439646      -0.00181609       0.00000000
