10
Lattice="16.28999089631971 0.0 0.0 0.0 16.28999089631971 0.0 0.0 0.0 34.26581377546328" Properties=species:S:1:pos:R:3:initial_magmoms:R:1 pbc="T T T"
Si       2.26942506      -0.13067838       0.42756906       0.00000000
Si       0.10523340       0.46758816      -2.26480023       0.00000000
Si      -0.35179884       1.75785390       1.57489195       0.00000000
Si      -1.66967613      -1.74739572       0.21344187       0.00000000
Si       0.65269143       0.70706745       3.44724559       0.00000000
Si       2.27170566      -0.83305431       2.71717775       0.00000000
Si       1.51941717       3.13271361       1.30038836       0.00000000
Si      -0.60095439      -3.30247007       1.70678114       0.00000000
Si      -2.67348222       1.88843454       1.86255361       0.00000000
Si       3.19609800       2.01805407       0.22084329       0.00000000
