10
Lattice="16.28999089631971 0.0 0.0 0.0 16.28999089631971 0.0 0.0 0.0 34.26581377546328" Properties=species:S:1:pos:R:3:initial_magmoms:R:1 pbc="T T T"
Si       1.75169628       0.97966431      -1.12511862       0.00000000
Si      -1.53337770       1.75322754      -0.39830604       0.00000000
Si       0.13615182      -0.49860432       2.31513674       0.00000000
Si      -0.50686335      -2.11847378      -0.93963767       0.00000000
Si      -2.70431919      -1.26708507      -1.18337054       0.00000000
Si      -3.35329650       0.50406147       0.29612533       0.00000000
Si       2.40469722      -0.08130339       2.66231815       0.00000000
Si       0.09153351      -3.56051249       0.83327653       0.00000000
Si      -0.52527105       3.61491390       0.56518065       0.00000000
Si       0.74720601       2.03045076      -2.99747227       0.00000000
