10
Lattice="16.28999089631971 0.0 0.0 0.0 16.28999089631971 0.0 0.0 0.0 34.26581377546328" Properties=species:S:1:pos:R:3:initial_magmoms:R:1 pbc="T T T"
Si       0.81814896      -0.94076120      -1.95147345       0.00000000
Si       0.86276727       2.12114696      -0.46961324       0.00000000
Si      -2.31774120       0.35444597       0.12914792       0.00000000
Si       0.72936846      -1.62538103       1.57369264       0.00000000
Si       3.13916445      -0.98120927      -1.40065019       0.00000000
Si      -1.40577813      -2.45151209       2.25606244       0.00000000
Si      -2.90072772      -0.61552449       2.17396150       0.00000000
Si       0.21975210       0.50127751      -3.72438765       0.00000000
Si       1.50105834      -3.51187706       0.30205332       0.00000000
Si       0.72661545       2.61975128      -2.78474998       0.00000000
