10
Lattice="16.28999089631971 0.0 0.0 0.0 16.28999089631971 0.0 0.0 0.0 34.26581377546328" Properties=species:S:1:pos:R:3:initial_magmoms:R:1 pbc="T T T"
Si       0.76896945       1.70482995       1.48682674       0.00000000
Si       1.84142160      -1.63133273       0.07911981       0.00000000
Si      -1.91710494      -0.79392084       1.62111454       0.00000000
Si       0.28813752       1.05365349      -2.46172597       0.00000000
Si      -0.76740561      -2.17814877      -1.62653056       0.00000000
Si      -2.78746335      -1.59764012      -0.52817355       0.00000000
Si      -1.70028504       2.58654249      -1.90696213       0.00000000
Si       2.70431919       2.47601484       0.25870704       0.00000000
Si       2.02318542       0.49355442       3.04923222       0.00000000
Si      -0.69729345      -2.23159284       3.03606043       0.00000000
