10
Lattice="16.28999089631971 0.0 0.0 0.0 16.28999089631971 0.0 0.0 0.0 34.26581377546328" Properties=species:S:1:pos:R:3:initial_magmoms:R:1 pbc="T T T"
Si      -1.34053668      -1.36238157      -1.37453962       0.00000000
Si       1.38127797       1.34824185      -1.37114730       0.00000000
Si       1.27063629      -1.44730134       1.38125573       0.00000000
Si      -1.38114765       1.43811378       1.48614344       0.00000000
Si       2.80834713      -0.02709027       2.57939484       0.00000000
Si      -2.69557146       2.71218726      -0.02028537       0.00000000
Si      -2.69327457      -2.71722576       0.02292384       0.00000000
Si      -2.69491986      -0.00923643      -2.73694914       0.00000000
Si       0.01977606       2.70793557      -2.73681208       0.00000000
Si       2.73435795       2.71990872       0.02384902       0.00000000
