10
Lattice="16.28999089631971 0.0 0.0 0.0 16.28999089631971 0.0 0.0 0.0 34.26581377546328" Properties=species:S:1:pos:R:3:initial_magmoms:R:1 pbc="T T T"
Si      -0.76997943      -1.69425774      -1.51084911       0.00000000
Si      -1.73270214       1.77526791      -0.19819358       0.00000000
Si       1.85502375       0.98018559      -1.38756064       0.00000000
Si      -0.09440055       0.49629114       3.11133763       0.00000000
Si      -2.08440324      -0.42018426      -3.01727792       0.00000000
Si      -2.65303827      -2.60327232      -0.23180836       0.00000000
Si       0.63744399       2.28014388      -3.00638138       0.00000000
Si      -3.44500920       0.96459606      -1.68060204       0.00000000
Si       2.82567969       2.77953012       0.09525902       0.00000000
Si      -0.66795516       3.60023661      -1.55793036       0.00000000
