10
Lattice="16.28999089631971 0.0 0.0 0.0 16.28999089631971 0.0 0.0 0.0 34.26581377546328" Properties=species:S:1:pos:R:3:initial_magmoms:R:1 pbc="T T T"
Si      -2.22534432      -0.15524370       0.85623463       0.00000000
Si       0.73520028      -2.23490655       0.59841851       0.00000000
Si       0.99671994       2.13710139       0.80994149       0.00000000
Si       0.09440055      -0.49629114      -3.11133763       0.00000000
Si      -2.84752458       1.33050204      -1.05569605       0.00000000
Si      -1.95564708       0.65449962       3.24041702       0.00000000
Si       3.05688366      -2.36548719       0.31075684       0.00000000
Si      -1.63830159       1.27897677      -3.30953121       0.00000000
Si      -0.38965680       3.93374178      -0.03621899       0.00000000
Si       0.77629995      -2.64271041       2.90992306       0.00000000
