10
Lattice="16.28999089631971 0.0 0.0 0.0 16.28999089631971 0.0 0.0 0.0 34.26581377546328" Properties=species:S:1:pos:R:3:initial_magmoms:R:1 pbc="T T T"
Si       2.32168338      -0.13058064      -0.28766167       0.00000000
Si       0.04109967      -0.40780386       2.31150456       0.00000000
Si      -0.73520028       2.23490655      -0.59841851       0.00000000
Si      -0.93304233      -2.21974056      -0.59588283       0.00000000
Si      -2.96054460       2.07966285       0.25781613       0.00000000
Si       1.04920632       1.45388250       3.27499125       0.00000000
Si       2.67348222      -1.88843454      -1.86255361       0.00000000
Si       1.57447737      -2.16103140       2.70981060       0.00000000
Si      -1.77881913      -1.65696993       3.00593593       0.00000000
Si       3.32617365      -1.18136709       1.58469198       0.00000000
