10
Lattice="16.28999089631971 0.0 0.0 0.0 16.28999089631971 0.0 0.0 0.0 34.26581377546328" Properties=species:S:1:pos:R:3:initial_magmoms:R:1 pbc="T T T"
Si      -1.00810665      -1.86168636      -0.96348669       0.00000000
Si      -1.57035600       1.72142946       0.36523951       0.00000000
Si       1.84777470       1.06645743      -1.09825421       0.00000000
Si       1.06821675      -0.70229448       2.04358001       0.00000000
Si       1.55792673       2.98300851       0.27203645       0.00000000
Si       3.27938877      -0.76025430      -0.74151262       0.00000000
Si      -1.34262180       1.84057452       2.76422474       0.00000000
Si      -0.59256504       3.54445965      -0.70933701       0.00000000
Si       0.52527105      -3.61491390      -0.56518065       0.00000000
Si      -1.04920632      -1.45388250      -3.27499125       0.00000000
