10
Lattice="16.28999089631971 0.0 0.0 0.0 16.28999089631971 0.0 0.0 0.0 34.26581377546328" Properties=species:S:1:pos:R:3:initial_magmoms:R:1 pbc="T T T"
Si      -1.90205298       1.18718262       0.78064421       0.00000000
Si       0.19793979      -2.36890809       0.24883848       0.00000000
Si      -0.48907467       0.59882040      -2.26366945       0.00000000
Si       2.00094957       1.17695250       0.66338653       0.00000000
Si       0.64050651      -2.34330021       2.62812085       0.00000000
Si      -1.19850417       3.38341671       0.07740652       0.00000000
Si      -3.60129546       0.02992473      -0.25761053       0.00000000
Si      -0.51344451       2.92680801      -2.11067251       0.00000000
Si       0.98254764       3.37569525       1.02917429       0.00000000
Si       2.31562350      -2.76374511      -1.05076177       0.00000000
