10
Lattice="16.28999089631971 0.0 0.0 0.0 16.28999089631971 0.0 0.0 0.0 34.26581377546328" Properties=species:S:1:pos:R:3:initial_magmoms:R:1 pbc="T T T"
Si       1.35439947      -1.35542574      -1.35761230       0.00000000
Si      -1.36094805      -1.35117405       1.35891440       0.00000000
Si      -1.35817875       1.35741312      -1.35740671       0.00000000
Si       1.36089918       1.34915409       1.36981094       0.00000000
Si      -2.72155401       0.03360627       2.69559028       0.00000000
Si       2.71148679       2.71513575       0.00147343       0.00000000
Si       2.71316466       0.00133578      -2.71361411       0.00000000
Si      -0.00234576      -2.71366965      -2.71375117       0.00000000
Si      -2.71417464      -2.71339272       0.00143916       0.00000000
Si      -0.00180819       2.71573848      -2.71423089       0.00000000
