10
Lattice="16.28999089631971 0.0 0.0 0.0 16.28999089631971 0.0 0.0 0.0 34.26581377546328" Properties=species:S:1:pos:R:3:initial_magmoms:R:1 pbc="T T T"
Si       1.30539915      -1.32009273      -1.44845102       0.00000000
Si       1.79494623       1.02395682       1.23932665       0.00000000
Si      -1.41146334       1.40344866      -1.42789152       0.00000000
Si      -1.06474698      -1.82496870       1.35973678       0.00000000
Si       2.52297891      -2.62005102       0.17036972       0.00000000
Si       0.61564797       2.40095052       2.80496682       0.00000000
Si      -2.77705404      -2.63564055      -0.12267168       0.00000000
Si      -2.68408701       2.77697259       0.10492198       0.00000000
Si       2.65598676       0.04588893      -2.81678853       0.00000000
Si      -0.05550003      -2.66924682      -2.81826196       0.00000000
