10
Lattice="16.28999089631971 0.0 0.0 0.0 16.28999089631971 0.0 0.0 0.0 34.26581377546328" Properties=species:S:1:pos:R:3:initial_magmoms:R:1 pbc="T T T"
Si       1.63400103      -1.48405158       1.04569042       0.00000000
Si       0.28528677       2.34453825       0.62367243       0.00000000
Si      -2.08383309      -0.60215985       1.14876205       0.00000000
Si      -0.16047279      -0.45602226      -2.67725806       0.00000000
Si      -3.47020983       1.19448054       0.30260157       0.00000000
Si      -1.85916141       1.38864105      -3.09112079       0.00000000
Si      -1.88871147       0.02417436       3.50289330       0.00000000
Si       0.55162827      -2.45382786       3.11397610       0.00000000
Si       1.01876031       2.69770545       2.88497754       0.00000000
Si       4.01131476      -0.72918927      -0.31976875       0.00000000
