10
Lattice="16.28999089631971 0.0 0.0 0.0 16.28999089631971 0.0 0.0 0.0 34.26581377546328" Properties=species:S:1:pos:R:3:initial_magmoms:R:1 pbc="T T T"
Si       1.78015491       1.24227540      -0.78684632       0.00000000
Si       0.28984797      -1.91655108      -1.37029066       0.00000000
Si       0.47452770      -0.13501152       2.36437674       0.00000000
Si      -2.15049177       0.56145114      -0.98137345       0.00000000
Si      -3.12828273      -1.26157905       0.09320307       0.00000000
Si      -1.55792673      -2.98300851      -0.27203645       0.00000000
Si       0.75698001       3.23498223      -1.59928922       0.00000000
Si       3.45703122       1.20891348       0.80887925       0.00000000
Si       1.37222073      -0.94677480      -3.43857633       0.00000000
Si      -0.71410473      -1.93186368       3.22732747       0.00000000
