10
Lattice="16.28999089631971 0.0 0.0 0.0 16.28999089631971 0.0 0.0 0.0 34.26581377546328" Properties=species:S:1:pos:R:3:initial_magmoms:R:1 pbc="T T T"
Si       0.97779096       1.82303019      -1.07457652       0.00000000
Si       1.57035600      -1.72142946      -0.36523951       0.00000000
Si      -2.16969768      -0.28590579      -0.99823224       0.00000000
Si       0.22773420       0.11914506       2.39898523       0.00000000
Si       3.12828273       1.26157905      -0.09320307       0.00000000
Si      -1.60806735      -1.28642130       2.84050049       0.00000000
Si      -3.16677600      -1.15704612       1.02872884       0.00000000
Si       0.78266934       1.19669598      -3.42870777       0.00000000
Si       3.41813070      -0.65497203      -1.46349372       0.00000000
Si       0.56224935      -3.58311582      -1.32872620       0.00000000
