10
Lattice="16.28999089631971 0.0 0.0 0.0 16.28999089631971 0.0 0.0 0.0 34.26581377546328" Properties=species:S:1:pos:R:3:initial_magmoms:R:1 pbc="T T T"
Si       1.35734796      -1.35683728      -1.35702978       0.00000000
Si      -1.35827649      -1.35818935       1.35610460       0.00000000
Si       1.35731538       1.35909898       1.35620740       0.00000000
Si      -1.35821133       1.35808574      -1.35720111       0.00000000
Si       2.71292652       0.00149849       2.71553299       0.00000000
Si      -2.71401174       0.00143635      -2.71471061       0.00000000
Si      -2.71160082      -0.00245410       2.71714349       0.00000000
Si       2.71349443      -0.00013428      -2.71563579       0.00000000
Si      -0.00272043       2.71583281       2.71333998       0.00000000
Si      -0.00138465       2.71461106      -2.71457355       0.00000000
