10
Lattice="16.28999089631971 0.0 0.0 0.0 16.28999089631971 0.0 0.0 0.0 34.26581377546328" Properties=species:S:1:pos:R:3:initial_magmoms:R:1 pbc="T T T"
Si      -1.32642954       1.27534410       1.49262654       0.00000000
Si      -1.53994257      -1.18491831      -1.36814360       0.00000000
Si       0.93568131       1.68927300      -1.44017038       0.00000000
Si       1.37993349      -1.43369919       1.46202372       0.00000000
Si      -3.35158605       0.53864514      -1.30612244       0.00000000
Si      -2.60861544       2.54247804      -0.00213476       0.00000000
Si       2.62508530       2.60881092       0.03936116       0.00000000
Si      -2.57382000      -2.67993143       0.07191028       0.00000000
Si      -0.86014458       3.49528014      -1.24636283       0.00000000
Si       0.03103245       2.63630844       2.84958436       0.00000000
