10
Lattice="16.28999089631971 0.0 0.0 0.0 16.28999089631971 0.0 0.0 0.0 34.26581377546328" Properties=species:S:1:pos:R:3:initial_magmoms:R:1 pbc="T T T"
Si      -1.35703845       1.35705474       1.35672139       0.00000000
Si       1.35802229      -1.35793440       1.35740671       0.00000000
Si       1.35724635       1.35843939      -1.35792069       0.00000000
Si      -1.35868374      -1.35891180      -1.35713258       0.00000000
Si      -2.71339272      -0.00156384       2.71429942       0.00000000
Si       0.00001629      -2.71442388       2.71364837       0.00000000
Si      -2.71461447       2.71435383      -0.00017133       0.00000000
Si      -0.00003258       2.71578735      -2.71340851       0.00000000
Si       2.71505334       2.71459818       0.00006853       0.00000000
Si      -0.00006516       2.71472850       2.71508754       0.00000000
