10
Lattice="16.28999089631971 0.0 0.0 0.0 16.28999089631971 0.0 0.0 0.0 34.26581377546328" Properties=species:S:1:pos:R:3:initial_magmoms:R:1 pbc="T T T"
Si       1.11464325       1.54671921       1.34592765       0.00000000
Si      -1.15144236       1.33690401      -1.54703382       0.00000000
Si      -1.67726727      -0.89197524       1.57016326       0.00000000
Si       1.54704501      -1.38833154      -1.50245398       0.00000000
Si      -2.43766818       2.70617625      -0.16584663       0.00000000
Si      -3.37595589       0.95268807       1.15630053       0.00000000
Si       2.96427943       0.47267064       2.18684546       0.00000000
Si      -2.64792321      -2.69131977       0.08734361       0.00000000
Si      -2.51491536      -0.02537982      -2.89981464       0.00000000
Si       2.80880325       2.68231140       0.00095944       0.00000000
