10
Lattice="16.28999089631971 0.0 0.0 0.0 16.28999089631971 0.0 0.0 0.0 34.26581377546328" Properties=species:S:1:pos:R:3:initial_magmoms:R:1 pbc="T T T"
Si      -1.18863243      -1.79685216       0.86295074       0.00000000
Si      -1.01292849       1.74514770       1.19060063       0.00000000
Si       2.35224342       0.09337428       0.24870142       0.00000000
Si      -0.47452770       0.13501152      -2.36437674       0.00000000
Si      -3.37507623      -1.00742247       0.12781156       0.00000000
Si       2.98250352       1.34392500      -1.55549749       0.00000000
Si      -3.28461786       1.17538866       1.05278345       0.00000000
Si       1.30562721       1.37728692      -3.15122306       0.00000000
Si      -0.96423768      -3.55029147      -0.59283318       0.00000000
Si      -0.73274049       3.69545166      -0.11479054       0.00000000
