10
Lattice="16.28999089631971 0.0 0.0 0.0 16.28999089631971 0.0 0.0 0.0 34.26581377546328" Properties=species:S:1:pos:R:3:initial_magmoms:R:1 pbc="T T T"
Si       1.35980775      -1.35560493      -1.35634446       0.00000000
Si       1.35682668       1.35765747       1.35870881       0.00000000
Si      -1.35830907      -1.35682668       1.35833188       0.00000000
Si      -1.36096434       1.35705474      -1.35840041       0.00000000
Si      -2.69987202       0.01112607      -2.72333532       0.00000000
Si       2.71297315       2.71436048       0.00010280       0.00000000
Si       2.71378769      -2.71441899       0.00058252       0.00000000
Si      -2.71598283      -2.71379997       0.00061678       0.00000000
Si       2.71446133       0.00013032       2.71553299       0.00000000
Si      -0.00097740      -2.71438641       2.71570432       0.00000000
