10
Lattice="16.28999089631971 0.0 0.0 0.0 16.28999089631971 0.0 0.0 0.0 34.26581377546328" Properties=species:S:1:pos:R:3:initial_magmoms:R:1 pbc="T T T"
Si      -1.35609363      -1.35671265      -1.35644726       0.00000000
Si      -1.35332433       1.35573525       1.36103888       0.00000000
Si       1.35827649       1.35818935      -1.35610460       0.00000000
Si       1.36055709      -1.35822762       1.35685845       0.00000000
Si       0.00501732      -2.70984150       2.71203788       0.00000000
Si       0.00048870      -2.71313208      -2.71351131       0.00000000
Si      -2.71360449      -2.71375110      -0.00023986       0.00000000
Si       2.71479366      -2.71292031       0.00051399       0.00000000
Si      -2.71402803       0.00198738      -2.71402530       0.00000000
Si       2.71562445       0.00135207      -2.71313439       0.00000000
