10
Lattice="16.28999089631971 0.0 0.0 0.0 16.28999089631971 0.0 0.0 0.0 34.26581377546328" Properties=species:S:1:pos:R:3:initial_magmoms:R:1 pbc="T T T"
Si       1.35544040      -1.35226548       1.36038783       0.00000000
Si      -1.36388907      -1.35260757      -1.35450096       0.00000000
Si      -1.36038271       1.36347300       1.35905147       0.00000000
Si       1.37699207       1.36506942      -1.37119528       0.00000000
Si      -0.15061082       2.50849710      -2.78997894       0.00000000
Si       2.70982358      -2.70671382       0.00054825       0.00000000
Si      -2.71742517      -2.70829395       0.00335805       0.00000000
Si      -0.00233924      -2.70948312       2.71683510       0.00000000
Si       2.71291868       0.00514764       2.71693789       0.00000000
Si      -2.71680615       0.00485442       2.71652670       0.00000000
