10
Lattice="16.28999089631971 0.0 0.0 0.0 16.28999089631971 0.0 0.0 0.0 34.26581377546328" Properties=species:S:1:pos:R:3:initial_magmoms:R:1 pbc="T T T"
Si       1.44676866      -0.90244971       1.67837476       0.00000000
Si      -1.51596599      -1.85012046      -0.08583591       0.00000000
Si       1.16786757       0.08698860      -2.08977035       0.00000000
Si      -1.00334182       2.06420268       0.80274567       0.00000000
Si       2.25836904      -2.64590325       0.32662192       0.00000000
Si      -3.54275150      -0.76766625      -0.27655954       0.00000000
Si       2.89503111      -1.57104018      -1.66994537       0.00000000
Si      -1.83728624      -2.44864764       2.16871883       0.00000000
Si       2.11985517       2.27288573      -2.22275605       0.00000000
Si       0.14340902      -1.93940595       3.29808642       0.00000000
