10
Lattice="16.28999089631971 0.0 0.0 0.0 16.28999089631971 0.0 0.0 0.0 34.474598006748145" Properties=species:S:1:pos:R:3:initial_magmoms:R:1 pbc="T T T"
Si       1.35373420       1.36347300       1.37154507       0.00000000
Si      -1.36032545      -1.35322985       1.37847447       0.00000000
Si      -1.40847869       1.38013767      -1.32371154       0.00000000
Si       1.49036821      -1.26348009      -1.41739631       0.00000000
Si      -2.70221420      -2.70590651       0.02189828       0.00000000
Si       2.67904788       0.33532965      -2.70867899       0.00000000
Si       2.73409179      -2.70643394      -0.00316132       0.00000000
Si      -0.00376753      -2.70922442       2.73422327       0.00000000
Si       2.70490011       2.74268214      -0.00180647       0.00000000
Si       2.71407138       0.00386073       2.73432669       0.00000000
