10
Lattice="16.28999089631971 0.0 0.0 0.0 16.28999089631971 0.0 0.0 0.0 34.474598006748145" Properties=species:S:1:pos:R:3:initial_magmoms:R:1 pbc="T T T"
Si       1.35956340       1.33747237       1.38328023       0.00000000
Si      -1.35185823      -1.38012547       1.37931565       0.00000000
Si       1.39968567      -1.23175615      -1.49335423       0.00000000
Si      -1.54466667       1.27324579      -1.46521605       0.00000000
Si      -0.38173986      -2.28495352      -2.71580145       0.00000000
Si      -2.72365542       2.68148371       0.02633171       0.00000000
Si       2.72077209       2.68778794       0.00622956       0.00000000
Si       0.00804726       2.69402701       2.74361415       0.00000000
Si       2.71231758      -2.72927956      -0.00041714       0.00000000
Si      -2.70902700      -0.01902219       2.74233859       0.00000000
