10
Lattice="16.28999089631971 0.0 0.0 0.0 16.28999089631971 0.0 0.0 0.0 34.474598006748145" Properties=species:S:1:pos:R:3:initial_magmoms:R:1 pbc="T T T"
Si      -1.93704390      -0.25635573       1.44248694       0.00000000
Si       0.16904133      -2.17277649      -1.14055824       0.00000000
Si      -0.96049098       1.94333184      -1.25984041       0.00000000
Si       2.24718921       0.30069711       1.14941821       0.00000000
Si      -0.63728109      -1.48452399       3.01606020       0.00000000
Si       1.49731164       1.89048708       2.73569878       0.00000000
Si       2.53985535      -2.40261210      -1.21502341       0.00000000
Si       0.56109276       2.19625038      -3.06410398       0.00000000
Si      -3.68100243      -1.50516342       0.24635562       0.00000000
Si       3.64604409       1.79993097      -0.27683118       0.00000000
