10
Lattice="16.28999089631971 0.0 0.0 0.0 16.28999089631971 0.0 0.0 0.0 34.474598006748145" Properties=species:S:1:pos:R:3:initial_magmoms:R:1 pbc="T T T"
Si       1.75475880       0.71820981       1.25770299       0.00000000
Si      -1.74658122       0.27805401       1.54342862       0.00000000
Si      -1.00734102       1.29067299      -1.69725436       0.00000000
Si       2.10141000      -1.90102671       0.86307204       0.00000000
Si       2.25486180      -1.74332322      -1.68784279       0.00000000
Si      -1.23312042      -3.40941555       0.84990274       0.00000000
Si      -1.86378777      -1.78336404       2.70815356       0.00000000
Si      -3.75393276      -0.50637465       0.23166943       0.00000000
Si      -2.83910265       2.50105257      -0.61943992       0.00000000
Si       1.35558864       2.73870738       2.36340739       0.00000000
