10
Lattice="16.28999089631971 0.0 0.0 0.0 16.28999089631971 0.0 0.0 0.0 34.474598006748145" Properties=species:S:1:pos:R:3:initial_magmoms:R:1 pbc="T T T"
Si      -1.06140753       1.55145960      -1.42345695       0.00000000
Si       0.82360611       1.47763332       1.71642224       0.00000000
Si       1.83176163      -1.21037958      -1.07781443       0.00000000
Si      -2.27620170      -1.06756515       0.26514428       0.00000000
Si      -0.91483011      -3.00742722       0.85110935       0.00000000
Si       1.09252143      -2.22299856       2.16286854       0.00000000
Si       0.83927709      -0.16988841       3.33755665       0.00000000
Si      -2.28986901       0.04735503      -2.66657717       0.00000000
Si       0.53605503      -2.58206274      -2.50451200       0.00000000
Si       2.83910265      -2.50105257       0.61943992       0.00000000
