10
Lattice="16.28999089631971 0.0 0.0 0.0 16.28999089631971 0.0 0.0 0.0 34.474598006748145" Properties=species:S:1:pos:R:3:initial_magmoms:R:1 pbc="T T T"
Si       1.74658122      -0.27805401      -1.54342862       0.00000000
Si      -0.11720655      -2.06141805       1.16472494       0.00000000
Si      -0.25324434       2.05311015       1.17468811       0.00000000
Si      -2.00735154      -0.78442866      -1.31175919       0.00000000
Si      -1.09252143       2.22299856      -2.16286854       0.00000000
Si       0.73924020       1.01261898      -3.24068297       0.00000000
Si       3.50134002       0.44015580      -0.28572563       0.00000000
Si      -3.51192852      -0.94480371       0.47202646       0.00000000
Si      -0.26891532       3.70063188      -0.44644629       0.00000000
Si       1.61901423       2.07529713       2.71391082       0.00000000
