10
Lattice="16.28999089631971 0.0 0.0 0.0 16.28999089631971 0.0 0.0 0.0 34.474598006748145" Properties=species:S:1:pos:R:3:initial_magmoms:R:1 pbc="T T T"
Si      -0.73456497       0.91228887       2.02772804       0.00000000
Si      -0.52561314       1.50640146      -1.73596935       0.00000000
Si      -1.27272141      -2.03802561      -0.15523920       0.00000000
Si       2.40345918      -0.21092292      -0.19088596       0.00000000
Si      -0.76388697      -2.67230934      -2.35189286       0.00000000
Si       3.10542786      -0.20751831       2.07709569       0.00000000
Si       1.33356456       1.68924042      -3.08954625       0.00000000
Si      -2.44584576       0.71812836      -2.77655120       0.00000000
Si      -0.69097293      -0.81705753       3.61511179       0.00000000
Si       0.71258976       2.72274318       2.64210019       0.00000000
