10
Lattice="16.28999089631971 0.0 0.0 0.0 16.28999089631971 0.0 0.0 0.0 34.474598006748145" Properties=species:S:1:pos:R:3:initial_magmoms:R:1 pbc="T T T"
Si      -0.88179399      -0.88021386      -2.00373371       0.00000000
Si       0.70838694       2.18378853      -0.56365999       0.00000000
Si       2.25132687      -0.44808903       0.59544559       0.00000000
Si      -1.52158374      -0.25291854       1.80426357       0.00000000
Si      -1.34930070       1.91770767       2.63520527       0.00000000
Si      -0.65337561       3.43935657       0.86210675       0.00000000
Si       0.42798717       2.27527317      -2.91486337       0.00000000
Si       0.55688994       0.04227255      -3.69250731       0.00000000
Si      -0.35662068      -3.15947808      -1.99080572       0.00000000
Si       3.02552541       2.18312064      -0.43238065       0.00000000
