10
Lattice="16.28999089631971 0.0 0.0 0.0 16.28999089631971 0.0 0.0 0.0 34.474598006748145" Properties=species:S:1:pos:R:3:initial_magmoms:R:1 pbc="T T T"
Si      -1.34933328      -1.34737848       1.36114408       0.00000000
Si       1.32800967      -1.33705062      -1.40268599       0.00000000
Si       1.36466217       1.36363590       1.35886875       0.00000000
Si      -1.37109672       1.26711765      -1.50491702       0.00000000
Si       2.33478054       0.45880785      -2.73624834       0.00000000
Si       0.33295131       2.09261340      -3.05079475       0.00000000
Si      -2.68615584       2.72503391      -0.01518262       0.00000000
Si      -2.71024875      -2.71598283      -0.02885181       0.00000000
Si      -2.70619254       0.00648342       2.72227092       0.00000000
Si       0.00746082      -2.70791928       2.72258119       0.00000000
