10
Lattice="16.28999089631971 0.0 0.0 0.0 16.28999089631971 0.0 0.0 0.0 34.474598006748145" Properties=species:S:1:pos:R:3:initial_magmoms:R:1 pbc="T T T"
Si       0.37036944      -1.11231378       1.96822485       0.00000000
Si      -0.62636679       2.28097371       0.48895350       0.00000000
Si      -1.98347040      -1.57273434      -0.30658277       0.00000000
Si       2.02810500      -0.80713692      -1.57445577       0.00000000
Si      -1.08830232       2.82863537      -1.76213559       0.00000000
Si       1.16828622      -3.21994656       1.28735116       0.00000000
Si      -1.94856093       0.85976928      -2.98970776       0.00000000
Si      -0.71672742      -3.14612028      -1.85252803       0.00000000
Si      -2.59713099       1.93209078       1.90682556       0.00000000
Si       0.78620427      -1.98431748      -3.14422299       0.00000000
