10
Lattice="16.28999089631971 0.0 0.0 0.0 16.28999089631971 0.0 0.0 0.0 34.474598006748145" Properties=species:S:1:pos:R:3:initial_magmoms:R:1 pbc="T T T"
Si      -1.42017849      -1.00253547      -1.54894455       0.00000000
Si       2.12823963      -0.50547870      -0.86803639       0.00000000
Si      -0.01713708      -1.08725976       2.10143477       0.00000000
Si      -0.45240588       2.34897469       0.26076601       0.00000000
Si      -3.33729972      -1.34174214      -0.28975916       0.00000000
Si      -2.44187100       2.17442897       1.54129119       0.00000000
Si       0.77840136       0.60264855       3.49169266       0.00000000
Si       1.64532258      -2.69850366       2.04448270       0.00000000
Si       3.17816271       1.66259880      -1.33454691       0.00000000
Si       1.71334962      -2.60767062      -2.23636842       0.00000000
