10
Lattice="16.28999089631971 0.0 0.0 0.0 16.28999089631971 0.0 0.0 0.0 34.474598006748145" Properties=species:S:1:pos:R:3:initial_magmoms:R:1 pbc="T T T"
Si      -0.79553844      -1.68990831      -1.39025789       0.00000000
Si       0.05885577      -1.34211681       1.93912827       0.00000000
Si      -2.22975891       0.88265314       0.06919056       0.00000000
Si       2.32093404       0.73368598      -0.24263236       0.00000000
Si       1.24333425      -3.13326747       0.86310652       0.00000000
Si       2.81787678       0.62974275       2.13380644       0.00000000
Si      -0.77840136      -0.60264855      -3.49169266       0.00000000
Si      -2.55386475      -2.68337025      -0.09359859       0.00000000
Si       0.86692122      -3.30115221      -1.44720996       0.00000000
Si      -2.10797487       2.60290484       1.64381870       0.00000000
