10
Lattice="16.28999089631971 0.0 0.0 0.0 16.28999089631971 0.0 0.0 0.0 34.474598006748145" Properties=species:S:1:pos:R:3:initial_magmoms:R:1 pbc="T T T"
Si      -1.36120869      -1.35031557       1.37705066       0.00000000
Si       1.35917244       1.36668213       1.37836070       0.00000000
Si       1.41227784      -1.37542660      -1.37756089       0.00000000
Si      -1.40585958       1.31419575      -1.46328547       0.00000000
Si       2.67662619       0.08708634      -2.72237576       0.00000000
Si      -2.72077209      -2.68778794      -0.00622956       0.00000000
Si       2.68845273       2.72727180       0.01267976       0.00000000
Si      -2.70001863       2.72596860       0.00311306       0.00000000
Si       2.73023658      -2.70598796       0.02409431       0.00000000
Si       0.00110772      -2.70821309       2.73624693       0.00000000
