10
Lattice="16.28999089631971 0.0 0.0 0.0 16.28999089631971 0.0 0.0 0.0 34.474598006748145" Properties=species:S:1:pos:R:3:initial_magmoms:R:1 pbc="T T T"
Si       1.09138113       1.24408359      -1.72049856       0.00000000
Si      -1.29415905       1.41177285       1.46639853       0.00000000
Si      -1.82503386      -0.91139292      -1.29004849       0.00000000
Si       1.40585958      -1.31419575       1.46328547       0.00000000
Si       2.67612120       2.59157610      -0.17396926       0.00000000
Si       2.43108702      -0.54299457      -2.94407168       0.00000000
Si      -2.56974750       2.89290852       0.07421696       0.00000000
Si      -0.91559574      -1.73192022      -3.33977134       0.00000000
Si      -2.66494626       0.04862565       2.83868136       0.00000000
Si       0.04465089      -2.66451132       2.84033614       0.00000000
