10
Lattice="16.28999089631971 0.0 0.0 0.0 16.28999089631971 0.0 0.0 0.0 34.474598006748145" Properties=species:S:1:pos:R:3:initial_magmoms:R:1 pbc="T T T"
Si      -1.01017548       1.83194082       0.97621774       0.00000000
Si      -0.30216321       0.65217015      -2.19527468       0.00000000
Si      -1.06161930      -1.72747305       1.14228197       0.00000000
Si       2.27393739      -0.52004196       0.42445149       0.00000000
Si       0.96029550       2.69979057      -1.95964067       0.00000000
Si       0.08469171      -1.39473351       3.25119773       0.00000000
Si      -0.00625536      -3.58201136       0.14224227       0.00000000
Si       2.28017646      -0.36803997       2.78372192       0.00000000
Si      -0.11324808      -1.37513664      -3.36689455       0.00000000
Si       2.19740697      -2.91652087       0.69387062       0.00000000
