10
Lattice="16.28999089631971 0.0 0.0 0.0 16.28999089631971 0.0 0.0 0.0 34.474598006748145" Properties=species:S:1:pos:R:3:initial_magmoms:R:1 pbc="T T T"
Si       0.27877077      -2.10610152       1.01589802       0.00000000
Si      -1.10007999       1.57473801       1.36509142       0.00000000
Si      -1.14631101      -0.33273954      -2.10891576       0.00000000
Si       2.19548475       1.02669354      -0.46747581       0.00000000
Si       2.19157515      -2.55579756      -0.35977711       0.00000000
Si      -0.38678976       3.43547955      -0.07439622       0.00000000
Si      -0.08469171       1.39473351      -3.25119773       0.00000000
Si       0.63332262      -1.31565045       3.33545370       0.00000000
Si       2.11271526      -1.52178736      -2.55732711       0.00000000
Si       2.18924568       0.87469155      -2.82674624       0.00000000
