10
Lattice="16.28999089631971 0.0 0.0 0.0 16.28999089631971 0.0 0.0 0.0 34.474598006748145" Properties=species:S:1:pos:R:3:initial_magmoms:R:1 pbc="T T T"
Si      -0.17228304       1.40779809      -1.89717266       0.00000000
Si      -1.37350764       1.03333986       1.66105601       0.00000000
Si       2.22894441      -0.22519296       0.87586213       0.00000000
Si      -1.26245871      -2.04762042      -0.23563401       0.00000000
Si      -0.96029550      -2.69979057       1.95964067       0.00000000
Si      -1.97047098      -0.86784975       2.93585841       0.00000000
Si      -0.20355984       2.91610548       2.45555804       0.00000000
Si       0.62011143      -0.61499637      -3.73935831       0.00000000
Si      -1.55942541       0.40656582      -3.51399774       0.00000000
Si       3.18945168       2.19165660       0.50943142       0.00000000
