10
Lattice="16.28999089631971 0.0 0.0 0.0 16.28999089631971 0.0 0.0 0.0 34.474598006748145" Properties=species:S:1:pos:R:3:initial_magmoms:R:1 pbc="T T T"
Si      -1.35755973      -1.35762489       1.35636934       0.00000000
Si       1.35777150      -1.35746199      -1.35774833       0.00000000
Si      -1.35786924       1.35816246      -1.35740358       0.00000000
Si       1.36021500       1.35764118       1.35788623       0.00000000
Si       2.71410948       0.00110772       2.71270421       0.00000000
Si       0.00027693      -2.71404432      -2.71477269       0.00000000
Si       2.71495656      -2.71406061       0.00041370       0.00000000
Si      -2.71494027      -2.71445157      -0.00013790       0.00000000
Si      -0.00128691       2.71466334      -2.71480716       0.00000000
Si       0.00156384      -2.71352304       2.71628957       0.00000000
