10
Lattice="16.28999089631971 0.0 0.0 0.0 16.28999089631971 0.0 0.0 0.0 34.474598006748145" Properties=species:S:1:pos:R:3:initial_magmoms:R:1 pbc="T T T"
Si       1.43565399      -1.26003150       1.37357218       0.00000000
Si       1.36642149       1.33134912      -1.37770913       0.00000000
Si      -1.34755767      -1.38385179      -1.38270795       0.00000000
Si      -1.28640501       1.59832593       1.64488741       0.00000000
Si      -2.68110594       2.67434559      -0.01558253       0.00000000
Si      -2.70107748      -2.70875007      -0.01506541       0.00000000
Si       0.01462842       2.69179218      -2.74193868       0.00000000
Si       2.71487511      -2.72460024      -0.03009634       0.00000000
Si      -2.70029556      -0.02484225      -2.74193868       0.00000000
Si       2.74289391       2.70422145      -0.00568831       0.00000000
