10
Lattice="16.28999089631971 0.0 0.0 0.0 16.28999089631971 0.0 0.0 0.0 34.474598006748145" Properties=species:S:1:pos:R:3:initial_magmoms:R:1 pbc="T T T"
Si      -1.43565399       1.26003150      -1.37357218       0.00000000
Si       1.27922112      -1.46456874      -1.40366852       0.00000000
Si      -0.80102817      -1.65393999       1.55249544       0.00000000
Si       1.70927712       1.13989275       1.26290865       0.00000000
Si       3.24454446      -0.79475652       1.38812046       0.00000000
Si       2.48284035      -2.79777492       0.06750130       0.00000000
Si      -0.06923250       2.59138062      -2.75128131       0.00000000
Si       2.64927528      -0.12162114      -2.75983101       0.00000000
Si      -2.73831642      -2.73079044       0.00148241       0.00000000
Si      -2.78321166      -0.12382029      -2.75628013       0.00000000
