10
Lattice="16.28999089631971 0.0 0.0 0.0 16.28999089631971 0.0 0.0 0.0 34.474598006748145" Properties=species:S:1:pos:R:3:initial_magmoms:R:1 pbc="T T T"
Si      -2.31713847       0.00066789      -0.13127934       0.00000000
Si       0.72536112      -1.34609157      -1.83891056       0.00000000
Si       1.40701617       0.14755482       1.93850773       0.00000000
Si       0.59458500       2.19944322      -0.80611998       0.00000000
Si      -0.77419854      -2.63120967       1.02782624       0.00000000
Si       3.02532993      -1.30367241       1.01675989       0.00000000
Si      -2.59753824       0.09215253      -2.48248272       0.00000000
Si       2.92381065      -1.86510726      -1.29462530       0.00000000
Si      -3.02552541      -2.18312064       0.43238065       0.00000000
Si       2.38682709       3.07006227       0.43193248       0.00000000
