10
Lattice="16.28999089631971 0.0 0.0 0.0 16.28999089631971 0.0 0.0 0.0 34.474598006748145" Properties=species:S:1:pos:R:3:initial_magmoms:R:1 pbc="T T T"
Si      -1.73812575      -1.16181909      -1.03780354       0.00000000
Si      -1.43967666       1.24155864       1.53846772       0.00000000
Si       1.25370283      -1.45248156       1.53875386       0.00000000
Si       1.59613492       1.01610504      -1.62418338       0.00000000
Si       2.65594603       2.54063727       0.04543065       0.00000000
Si      -2.93693943       2.38752756       0.10317908       0.00000000
Si      -0.85039339      -2.26271358      -2.92522096       0.00000000
Si       2.71906978      -2.73445569       0.23694060       0.00000000
Si      -3.63993438       0.48089709      -1.32977015       0.00000000
Si      -0.09890311       2.60011206       2.91562181       0.00000000
