10
Lattice="16.28999089631971 0.0 0.0 0.0 16.28999089631971 0.0 0.0 0.0 34.474598006748145" Properties=species:S:1:pos:R:3:initial_magmoms:R:1 pbc="T T T"
Si       1.36529748       1.34713413       1.38366290       0.00000000
Si      -1.35106002      -1.36182771       1.38349052       0.00000000
Si       1.44386415      -1.22365593      -1.45307754       0.00000000
Si      -1.31263191       1.49752341      -1.49293709       0.00000000
Si       2.28185433       0.74789019      -2.75530591       0.00000000
Si      -0.00775404      -2.55373443      -2.77909340       0.00000000
Si      -2.70024669      -2.72676681       0.00618130       0.00000000
Si       0.42481062       2.49122970      -2.88986034       0.00000000
Si      -2.71231758       2.72927956       0.00041714       0.00000000
Si       2.72152143      -2.72336220      -0.00410248       0.00000000
