10
Lattice="16.28999089631971 0.0 0.0 0.0 16.28999089631971 0.0 0.0 0.0 34.474598006748145" Properties=species:S:1:pos:R:3:initial_magmoms:R:1 pbc="T T T"
Si       1.35659862      -1.35119034      -1.36078209       0.00000000
Si      -1.33913574      -1.36863693       1.36557406       0.00000000
Si      -1.35894438       1.36389654      -1.35929968       0.00000000
Si       1.35917244       1.37451762       1.38432826       0.00000000
Si      -2.67584427       0.00068418       2.66047516       0.00000000
Si       2.70839169      -2.71163340       0.00344746       0.00000000
Si      -0.00216657      -2.71044423      -2.71704801       0.00000000
Si      -2.71555929      -2.71243161      -0.00148241       0.00000000
Si       2.71275741       0.00482184      -2.71797883       0.00000000
Si       2.70459612       2.72720664      -0.00355089       0.00000000
