10
Lattice="16.28999089631971 0.0 0.0 0.0 16.28999089631971 0.0 0.0 0.0 34.474598006748145" Properties=species:S:1:pos:R:3:initial_magmoms:R:1 pbc="T T T"
Si      -0.24215085      -2.30809752      -0.59396318       0.00000000
Si      -1.80146223       1.50780144      -0.96197972       0.00000000
Si       2.54646909       0.05357781      -0.49426259       0.00000000
Si      -1.42069977       0.99571878       2.44380219       0.00000000
Si       2.21684094       0.29544768       2.06168554       0.00000000
Si       2.06729874      -0.21466962      -2.84163928       0.00000000
Si       0.29038554      -2.06695665      -2.88283645       0.00000000
Si       2.96248311      -1.81213218       1.40373747       0.00000000
Si       1.20744738      -3.39069834       1.06247323       0.00000000
Si       0.55236132       0.56759966       3.71963883       0.00000000
