10
Lattice="16.28999089631971 0.0 0.0 0.0 16.28999089631971 0.0 0.0 0.0 34.474598006748145" Properties=species:S:1:pos:R:3:initial_magmoms:R:1 pbc="T T T"
Si       1.35720135       1.35588448       1.35702436       0.00000000
Si       1.35741312      -1.35782657      -1.35764490       0.00000000
Si      -1.35798327       1.35776271      -1.35743806       0.00000000
Si      -1.35757602      -1.35787544       1.35929968       0.00000000
Si       2.71305880       0.00032485      -2.71491058       0.00000000
Si      -0.00037467       2.71464804      -2.71408319       0.00000000
Si       2.71484819       2.71463175       0.00020685       0.00000000
Si      -2.71451673       0.00141763      -2.71508296       0.00000000
Si      -0.00060273      -2.71558178      -2.71435899       0.00000000
Si       2.71451025      -2.71558178      -0.00048264       0.00000000
