10
Lattice="16.28999089631971 0.0 0.0 0.0 16.28999089631971 0.0 0.0 0.0 34.474598006748145" Properties=species:S:1:pos:R:3:initial_magmoms:R:1 pbc="T T T"
Si      -1.35023642      -1.35780408      -1.37767466       0.00000000
Si       1.36404315       1.35943308      -1.37915706       0.00000000
Si       1.39344660      -1.34074845       1.43183428       0.00000000
Si      -1.45476935       1.35347094       1.40615069       0.00000000
Si       2.70270648      -2.69021205      -0.03892184       0.00000000
Si      -2.71737467      -2.71632492       0.02533884       0.00000000
Si      -2.71403522       2.72551248      -0.02840708       0.00000000
Si       2.73201219       2.71111212      -0.00106871       0.00000000
Si      -2.70947402       0.00338832      -2.74338662       0.00000000
Si       0.00718226      -2.71378368      -2.74252475       0.00000000
