10
Lattice="16.28999089631971 0.0 0.0 0.0 16.28999089631971 0.0 0.0 0.0 34.474598006748145" Properties=species:S:1:pos:R:3:initial_magmoms:R:1 pbc="T T T"
Si       1.35712406       1.35676152      -1.35712778       0.00000000
Si      -1.35757602      -1.35816246      -1.35664514       0.00000000
Si      -1.35769005       1.35772263       1.35785175       0.00000000
Si       1.35764684      -1.35817875       1.35764490       0.00000000
Si      -2.71365336       0.00350235      -2.71553113       0.00000000
Si      -2.71487511       2.71432125      -0.00031027       0.00000000
Si       2.71464446       2.71492398      -0.00041370       0.00000000
Si      -0.00070047      -2.71649108      -2.71322133       0.00000000
Si      -0.00079821       2.71656927       2.71329028       0.00000000
Si       2.71585807      -0.00060273       2.71415214       0.00000000
