10
Lattice="16.28999089631971 0.0 0.0 0.0 16.28999089631971 0.0 0.0 0.0 34.474598006748145" Properties=species:S:1:pos:R:3:initial_magmoms:R:1 pbc="T T T"
Si       1.35389448      -1.35653346       1.35481798       0.00000000
Si       1.35610992       1.35770634      -1.35867914       0.00000000
Si      -1.36021500      -1.35764118      -1.35788623       0.00000000
Si      -1.36461330       1.35646830       1.36336769       0.00000000
Si      -0.01615968      -2.69948106       2.71098048       0.00000000
Si       2.70707220       0.00926901       2.71294553       0.00000000
Si       2.71163340      -2.71285515      -0.00203400       0.00000000
Si       2.71173114       2.71565703      -0.00234427       0.00000000
Si       2.71265967       0.00037467      -2.71518638       0.00000000
Si      -0.00245979       2.71528236      -2.71542770       0.00000000
