10
Lattice="16.28999089631971 0.0 0.0 0.0 16.28999089631971 0.0 0.0 0.0 34.474598006748145" Properties=species:S:1:pos:R:3:initial_magmoms:R:1 pbc="T T T"
Si       2.34217524       0.47886084       0.18923117       0.00000000
Si      -2.22883038       0.17743068      -0.87275941       0.00000000
Si      -0.04214223      -2.35597383       0.51639529       0.00000000
Si      -0.21203064       1.09141371       2.14890632       0.00000000
Si       0.37652706       1.42827462      -2.91655262       0.00000000
Si       1.33324106      -0.11917764       3.45021970       0.00000000
Si       2.02769679      -0.38380869      -3.07720434       0.00000000
Si      -3.36981456      -1.69240068       0.06329540       0.00000000
Si       0.45924768       3.35513727       1.67477691       0.00000000
Si       3.11608871      -0.64847232       2.03776015       0.00000000
