10
Lattice="16.28999089631971 0.0 0.0 0.0 16.28999089631971 0.0 0.0 0.0 34.474598006748145" Properties=species:S:1:pos:R:3:initial_magmoms:R:1 pbc="T T T"
Si       1.35109260      -1.35112518      -1.35516273       0.00000000
Si      -1.34877942      -1.33744158       1.38257005       0.00000000
Si      -1.36298430       1.36309833      -1.35140500       0.00000000
Si       1.34524449       1.35558864       1.38294927       0.00000000
Si      -2.21589612       0.47646621       2.66778378       0.00000000
Si      -0.43898292       2.32875324       2.70898095       0.00000000
Si       0.16579962      -2.57435757       2.77424140       0.00000000
Si       2.70706310      -2.70855459       0.00430933       0.00000000
Si       2.70910197       0.00539199      -2.71118733       0.00000000
Si      -0.00452862      -2.70907587      -2.71149760       0.00000000
