10
Lattice="16.28999089631971 0.0 0.0 0.0 16.28999089631971 0.0 0.0 0.0 34.474598006748145" Properties=species:S:1:pos:R:3:initial_magmoms:R:1 pbc="T T T"
Si      -1.72403586       1.62640989      -0.01151452       0.00000000
Si       2.01455172       0.87633684      -0.90561372       0.00000000
Si      -1.02258846      -2.08560870      -0.58162127       0.00000000
Si       1.01652858      -0.56063664       2.10009026       0.00000000
Si      -3.40483806       0.23695434       1.04489117       0.00000000
Si       1.60953345      -2.83556772       1.69318635       0.00000000
Si      -0.56092986       3.53914978       0.87837877       0.00000000
Si       3.34914485      -0.98792334      -1.32306686       0.00000000
Si      -1.31026986      -1.97193708      -2.93168698       0.00000000
Si      -3.18290310      -2.00399580       0.35536435       0.00000000
