10
Lattice="16.28999089631971 0.0 0.0 0.0 16.28999089631971 0.0 0.0 0.0 34.474598006748145" Properties=species:S:1:pos:R:3:initial_magmoms:R:1 pbc="T T T"
Si       1.33459313      -1.86426018      -0.41745314       0.00000000
Si       1.21103837       0.90824895       1.77664940       0.00000000
Si       0.11734959       1.58749308      -1.72183476       0.00000000
Si      -2.01455172      -0.87633684       0.90561372       0.00000000
Si      -0.53396991      -0.09247833      -3.39502583       0.00000000
Si      -0.99802314      -1.43697348       3.00570398       0.00000000
Si       1.38658266      -1.09954242       3.04686667       0.00000000
Si      -0.31037337       2.52858725       2.69136442       0.00000000
Si       1.67615045      -2.94081741       1.60824090       0.00000000
Si       3.44604266      -1.20285360      -1.18013510       0.00000000
