10
Lattice="16.28999089631971 0.0 0.0 0.0 16.28999089631971 0.0 0.0 0.0 34.474598006748145" Properties=species:S:1:pos:R:3:initial_magmoms:R:1 pbc="T T T"
Si       0.52121484      -1.88876034       1.27835328       0.00000000
Si       0.50883444      -0.63428373      -2.19665366       0.00000000
Si       1.27272141       2.03802561       0.15523920       0.00000000
Si      -2.35747740      -0.28111653       0.71841655       0.00000000
Si      -0.23539050      -1.08874215       3.44446244       0.00000000
Si      -0.32524614      -3.59660394      -0.37560096       0.00000000
Si       0.53815644       2.95031448       2.18296724       0.00000000
Si      -0.55208439      -2.68255575      -2.56084352       0.00000000
Si      -0.65239821       0.72935217      -3.63696870       0.00000000
Si       0.74710827       3.54442707      -1.58073015       0.00000000
