10
Lattice="16.28999089631971 0.0 0.0 0.0 16.28999089631971 0.0 0.0 0.0 34.474598006748145" Properties=species:S:1:pos:R:3:initial_magmoms:R:1 pbc="T T T"
Si      -0.99456966      -1.70253306      -1.20212990       0.00000000
Si       0.34155732      -1.07655723       2.02569404       0.00000000
Si      -1.33459313       1.86426018       0.41745314       0.00000000
Si       2.11144953       0.66140658      -0.76268196       0.00000000
Si       2.70851061      -1.44355464      -1.57400760       0.00000000
Si       0.78827799      -2.23182774      -2.61458945       0.00000000
Si      -0.12355476       2.77250913       2.19410254       0.00000000
Si       0.05198953       0.76471776       3.46431982       0.00000000
Si      -2.53984136      -0.49194171      -2.50344328       0.00000000
Si      -3.34914485       0.98792334       1.32306686       0.00000000
