10
Lattice="16.28999089631971 0.0 0.0 0.0 16.28999089631971 0.0 0.0 0.0 34.474598006748145" Properties=species:S:1:pos:R:3:initial_magmoms:R:1 pbc="T T T"
Si       1.35730886      -1.35909099       1.36219555       0.00000000
Si      -1.36051375       1.35666903       1.36212660       0.00000000
Si      -1.35744311      -1.38525273      -1.35520755       0.00000000
Si       1.37734556       1.35945950      -1.37525798       0.00000000
Si      -2.62436528       0.05334975      -2.65698289       0.00000000
Si       2.71416812      -2.71295289       0.00106871       0.00000000
Si       2.71514552       2.71227264       0.00799811       0.00000000
Si      -2.71707167       2.71266360       0.00637780       0.00000000
Si      -2.71379738      -2.71801908       0.00334404       0.00000000
Si       2.71376087      -0.00130320       2.71959913       0.00000000
