10
Lattice="16.28999089631971 0.0 0.0 0.0 16.28999089631971 0.0 0.0 0.0 34.474598006748145" Properties=species:S:1:pos:R:3:initial_magmoms:R:1 pbc="T T T"
Si      -1.52061448       1.30590414      -1.31389661       0.00000000
Si      -1.19245081      -0.76455486       2.06275425       0.00000000
Si       1.26674298      -1.57338594      -1.54594526       0.00000000
Si       1.98347040       1.57273434       0.30658277       0.00000000
Si       2.35383984       0.46042056       2.27480762       0.00000000
Si       0.43671861       0.12121389       3.53399302       0.00000000
Si       0.03490947       2.43250362      -2.68312499       0.00000000
Si      -2.55171398      -0.30757149      -2.74255923       0.00000000
Si      -1.38589618      -3.13851285       1.67953440       0.00000000
Si       3.15175662      -1.64721222       1.59393393       0.00000000
