10
Lattice="16.28999089631971 0.0 0.0 0.0 16.28999089631971 0.0 0.0 0.0 34.51007289658418" Properties=species:S:1:pos:R:3:initial_magmoms:R:1 pbc="T T T"
Si       1.02997923      -1.74244356       1.17299803       0.00000000
Si      -0.38346008      -0.99030168      -2.09831713       0.00000000
Si       1.95194436       1.37811349       0.11698921       0.00000000
Si      -1.98973783       0.85128512       1.14756410       0.00000000
Si      -1.62298477       0.90902991      -2.66614619       0.00000000
Si      -0.42869904       2.83632425      -1.82120109       0.00000000
Si       1.44459231       2.43309788       2.13324135       0.00000000
Si      -0.82354421       2.17193660       2.69061385       0.00000000
Si       3.14914533      -2.13675930       0.09410902       0.00000000
Si      -0.37343196      -3.60072531       1.19342801       0.00000000
