10
Lattice="16.28999089631971 0.0 0.0 0.0 16.28999089631971 0.0 0.0 0.0 34.51007289658418" Properties=species:S:1:pos:R:3:initial_magmoms:R:1 pbc="T T T"
Si       1.83655089       0.95619042      -1.08537691       0.00000000
Si       0.16474077      -1.42282887       1.89401739       0.00000000
Si      -1.07074170      -1.77187617      -1.18014162       0.00000000
Si      -1.02035673       1.70038278       1.35842076       0.00000000
Si      -1.71119934      -0.09148464       2.66569756       0.00000000
Si       0.29999664       2.22342210      -2.52272225       0.00000000
Si      -2.43607990      -0.48751572      -2.54932953       0.00000000
Si       2.28934773      -0.53577321       2.68899187       0.00000000
Si       3.43038078       1.49079564       0.66545811       0.00000000
Si       0.74264481       2.99522601       2.26227458       0.00000000
