10
Lattice="16.28999089631971 0.0 0.0 0.0 16.28999089631971 0.0 0.0 0.0 34.51007289658418" Properties=species:S:1:pos:R:3:initial_magmoms:R:1 pbc="T T T"
Si       0.67727304      -1.83017661      -1.23804956       0.00000000
Si      -1.84858920      -0.05201397       1.50346668       0.00000000
Si       2.06702181       0.50430582       1.09679975       0.00000000
Si      -0.86942988       1.70082261      -1.66476685       0.00000000
Si      -1.44733392      -2.71723227      -2.03302404       0.00000000
Si      -2.63243142       0.40597938      -2.56862067       0.00000000
Si       1.81830609       0.19639224      -3.26158332       0.00000000
Si      -3.32327403      -1.38588804      -1.26134387       0.00000000
Si      -1.15313652       3.63701943      -0.39203465       0.00000000
Si       1.37876931      -3.58794485       0.13448583       0.00000000
