10
Lattice="16.28999089631971 0.0 0.0 0.0 16.28999089631971 0.0 0.0 0.0 34.51007289658418" Properties=species:S:1:pos:R:3:initial_magmoms:R:1 pbc="T T T"
Si      -2.06161353       0.40548742       0.91993553       0.00000000
Si      -0.65661732      -0.64905943      -2.14318025       0.00000000
Si       0.85592547       2.18710192      -0.40687399       0.00000000
Si       0.95397498      -1.95975283       1.01238806       0.00000000
Si       2.04302664       2.01858187       1.60030199       0.00000000
Si      -1.17266823      -2.91284815       1.54505134       0.00000000
Si       1.36516716      -0.31968148      -3.24260277       0.00000000
Si      -3.01972617      -1.71346432       0.68098765       0.00000000
Si      -3.09843945       1.75406485      -0.60955176       0.00000000
Si       1.91337453       1.88821300      -2.51699357       0.00000000
