10
Lattice="16.28999089631971 0.0 0.0 0.0 16.28999089631971 0.0 0.0 0.0 34.51007289658418" Properties=species:S:1:pos:R:3:initial_magmoms:R:1 pbc="T T T"
Si       0.60779619       2.36382561      -0.06336053       0.00000000
Si       1.28073609      -1.10330867      -1.84387423       0.00000000
Si      -2.31886521      -0.99310682       0.54705398       0.00000000
Si       1.39530366       0.44527086       2.14713205       0.00000000
Si      -0.47180727      -0.77375382       3.33121576       0.00000000
Si       1.76990850       2.52273456      -2.17013264       0.00000000
Si       2.85982353       0.52909920      -2.51195510       0.00000000
Si      -0.15708447      -1.48828698      -3.73702886       0.00000000
Si      -2.61679302      -2.90005073      -0.98840355       0.00000000
Si      -1.25035524       3.86245674      -0.00220865       0.00000000
