10
Lattice="16.28999089631971 0.0 0.0 0.0 16.28999089631971 0.0 0.0 0.0 34.51007289658418" Properties=species:S:1:pos:R:3:initial_magmoms:R:1 pbc="T T T"
Si       1.36723599       1.33641531      -1.36190628       0.00000000
Si       1.31440752      -1.46036592       1.29316217       0.00000000
Si      -1.35514881      -1.37244879      -1.36245844       0.00000000
Si      -1.25709930       1.36423863       1.48231199       0.00000000
Si      -2.38233105      -0.24707043       2.93956965       0.00000000
Si      -2.70857088       2.70029556       0.01936016       0.00000000
Si       0.00610875       2.69948106      -2.72125881       0.00000000
Si       2.73748563       2.68358202       0.02498531       0.00000000
Si      -2.70254358      -2.72479572       0.02605512       0.00000000
Si      -2.70705591      -0.01585017      -2.72187999       0.00000000
