10
Lattice="16.28999089631971 0.0 0.0 0.0 16.28999089631971 0.0 0.0 0.0 34.51007289658418" Properties=species:S:1:pos:R:3:initial_magmoms:R:1 pbc="T T T"
Si      -0.80785368       1.91945070       1.27752910       0.00000000
Si       1.12523175       1.61130906      -1.45725766       0.00000000
Si      -1.69463241      -1.03330728      -1.47972373       0.00000000
Si       0.12243564      -1.70592138       1.87148230       0.00000000
Si      -0.16127100       0.23027544       3.14421450       0.00000000
Si      -1.64056590      -3.00076461       0.96762847       0.00000000
Si       2.38233105       0.24707043      -2.93956965       0.00000000
Si       2.37403944       2.96986248       0.05535419       0.00000000
Si      -0.32021253      -2.47772529      -2.91351453       0.00000000
Si      -2.81767967       2.72442105       0.06166953       0.00000000
