10
Lattice="16.28999089631971 0.0 0.0 0.0 16.28999089631971 0.0 0.0 0.0 34.51007289658418" Properties=species:S:1:pos:R:3:initial_magmoms:R:1 pbc="T T T"
Si       0.69084261       1.79186742      -1.30727680       0.00000000
Si      -1.75039634      -1.25065009      -1.02650269       0.00000000
Si       1.87594011      -1.33134423      -0.77168017       0.00000000
Si      -0.87984571       0.94286520       2.25237019       0.00000000
Si      -2.07413144      -0.98442914       1.40742509       0.00000000
Si       1.71119934       0.09148464      -2.66569756       0.00000000
Si       1.47468483       1.33387407       2.76481055       0.00000000
Si       1.01706615      -3.22185968       0.49956809       0.00000000
Si      -0.83460675      -2.88376073       1.97525415       0.00000000
Si       3.32327403       1.38588804       1.26134387       0.00000000
