10
Lattice="16.28999089631971 0.0 0.0 0.0 16.28999089631971 0.0 0.0 0.0 34.51007289658418" Properties=species:S:1:pos:R:3:initial_magmoms:R:1 pbc="T T T"
Si      -1.33745787      -1.35158130       1.36336260       0.00000000
Si       1.31396769      -1.35588186      -1.38886211       0.00000000
Si       1.37580453       1.36287027       1.35704726       0.00000000
Si      -1.26778554       1.33768593      -1.49322753       0.00000000
Si       0.72042525       2.15961417      -2.72699581       0.00000000
Si       2.44592721       0.35772840      -2.58984645       0.00000000
Si      -2.68578117      -2.69549001       0.00955930       0.00000000
Si      -2.66835087       2.72461653      -0.01418020       0.00000000
Si      -2.69252523       0.00236205       2.71812529       0.00000000
Si       0.02005299      -2.71024875       2.71798725       0.00000000
