10
Lattice="16.28999089631971 0.0 0.0 0.0 16.28999089631971 0.0 0.0 0.0 34.51007289658418" Properties=species:S:1:pos:R:3:initial_magmoms:R:1 pbc="T T T"
Si       2.02178448       0.32937795      -1.09942252       0.00000000
Si       0.65661732       0.64905943       2.14318025       0.00000000
Si      -0.73726911      -2.16673290      -0.50550383       0.00000000
Si      -1.93447008       1.34813989      -0.48262364       0.00000000
Si      -2.85643521      -1.77241716       0.57338518       0.00000000
Si       1.26677556      -0.33857136      -3.27735443       0.00000000
Si      -1.40499621       1.05454685       3.06311578       0.00000000
Si      -0.42562512      -2.04836976      -2.90854508       0.00000000
Si       2.56999185       2.53727243      -0.37381332       0.00000000
Si       1.51254279       2.83616135       1.73630627       0.00000000
