10
Lattice="16.28999089631971 0.0 0.0 0.0 16.28999089631971 0.0 0.0 0.0 34.51007289658418" Properties=species:S:1:pos:R:3:initial_magmoms:R:1 pbc="T T T"
Si       0.73726911       2.16673290       0.50550383       0.00000000
Si       1.35739683      -1.69391565       1.03871926       0.00000000
Si      -2.11916610       0.39431574       1.07888901       0.00000000
Si       0.31164399       0.11836314      -2.40304125       0.00000000
Si       0.04812066      -2.07702387       2.97104286       0.00000000
Si      -1.19720097       3.51487279       0.02288019       0.00000000
Si       2.75905359       2.49611085      -0.59391869       0.00000000
Si      -3.14914533       2.13675930      -0.09410902       0.00000000
Si       3.25853757      -0.56918889       1.91282539       0.00000000
Si      -1.62583974       1.10232801       3.32967173       0.00000000
