10
Lattice="16.28999089631971 0.0 0.0 0.0 16.28999089631971 0.0 0.0 0.0 34.51007289658418" Properties=species:S:1:pos:R:3:initial_magmoms:R:1 pbc="T T T"
Si       1.57450995       0.39707364      -1.77943012       0.00000000
Si       1.83909213       0.68316025       1.40164948       0.00000000
Si      -0.70666020      -2.02597494       1.14837991       0.00000000
Si      -1.91998827       1.67645603       0.06266722       0.00000000
Si       0.48705471       2.08753418       2.65462120       0.00000000
Si      -2.22005007      -0.68250474       2.64287742       0.00000000
Si       3.40309503       1.50780566      -0.06150012       0.00000000
Si      -0.86804523       3.55641977       1.19650424       0.00000000
Si       1.71655875      -1.51668438      -3.11241694       0.00000000
Si      -3.78709920       0.45743135       1.24675093       0.00000000
