10
Lattice="16.28999089631971 0.0 0.0 0.0 16.28999089631971 0.0 0.0 0.0 34.51007289658418" Properties=species:S:1:pos:R:3:initial_magmoms:R:1 pbc="T T T"
Si      -1.35718506      -1.35658885       1.35735095       0.00000000
Si      -1.35405738       1.35739683      -1.36107804       0.00000000
Si       1.35788553       1.35848826       1.35704035       0.00000000
Si       1.35871632      -1.35560493      -1.36270001       0.00000000
Si       0.00089595      -2.71422750       2.71418424       0.00000000
Si      -2.71472850       0.00114030       2.71449483       0.00000000
Si      -2.71334385      -2.71587971      -0.00003451       0.00000000
Si       2.71513575       0.00060273       2.71425326       0.00000000
Si      -0.01324377       2.71625976      -2.71371835       0.00000000
Si       0.00079821       2.71554300       2.71466738       0.00000000
