10
Lattice="16.28999089631971 0.0 0.0 0.0 16.28999089631971 0.0 0.0 0.0 34.51007289658418" Properties=species:S:1:pos:R:3:initial_magmoms:R:1 pbc="T T T"
Si      -1.86305472      -0.87272046       1.18293694       0.00000000
Si      -1.30320000       1.38794058      -1.45401371       0.00000000
Si       1.40476815      -1.33352058      -1.41915852       0.00000000
Si       1.13261112       1.73289762       1.34434064       0.00000000
Si      -0.76761738       3.26953332       1.10549629       0.00000000
Si      -2.71554300       2.66986584      -0.14891105       0.00000000
Si      -2.69456148      -2.71411667      -0.03941053       0.00000000
Si       2.63570571      -2.82622445       0.12209671       0.00000000
Si      -2.66152536       0.03891681      -2.80791365       0.00000000
Si       0.04944015      -2.67363602      -2.80556696       0.00000000
