10
Lattice="16.28999089631971 0.0 0.0 0.0 16.28999089631971 0.0 0.0 0.0 34.51007289658418" Properties=species:S:1:pos:R:3:initial_magmoms:R:1 pbc="T T T"
Si       1.35754344       1.35656604       1.35690231       0.00000000
Si       1.35708732      -1.35705474      -1.35762703       0.00000000
Si      -1.35778779      -1.35690813       1.35831723       0.00000000
Si      -1.35770634       1.35795069      -1.35776507       0.00000000
Si       2.71254564       0.00490329       2.71377012       0.00000000
Si       0.00262269       2.71091664       2.71694505       0.00000000
Si       2.71433754      -2.71494027      -0.00041412       0.00000000
Si       2.71505430       2.71459818       0.00024157       0.00000000
Si       0.00381186      -2.71681362       2.71301090       0.00000000
Si      -2.71552671      -2.71440270      -0.00017255       0.00000000
