10
Lattice="16.28999089631971 0.0 0.0 0.0 16.28999089631971 0.0 0.0 0.0 34.51007289658418" Properties=species:S:1:pos:R:3:initial_magmoms:R:1 pbc="T T T"
Si      -0.51266259       1.18579797       1.96890429       0.00000000
Si       0.61572942       1.14403041      -2.06560157       0.00000000
Si       2.20449312      -1.08211538       0.56655218       0.00000000
Si      -2.37548225      -0.65527014      -0.69713837       0.00000000
Si      -1.44354812      -0.70509310       3.23593684       0.00000000
Si       1.90656531      -2.98905929      -0.96890535       0.00000000
Si      -3.13094519       1.48113567      -1.38250880       0.00000000
Si       0.60616719      -0.57142551      -3.72039500       0.00000000
Si      -1.37628508       2.29281750      -2.73433813       0.00000000
Si      -3.28363136      -1.55669521       1.59812786       0.00000000
