10
Lattice="16.28999089631971 0.0 0.0 0.0 16.28999089631971 0.0 0.0 0.0 34.51007289658418" Properties=species:S:1:pos:R:3:initial_magmoms:R:1 pbc="T T T"
Si       1.35707579      -1.35647807      -1.35735095       0.00000000
Si      -1.35687961      -1.35822925       1.35628113       0.00000000
Si      -1.35702622       1.35707103      -1.35773056       0.00000000
Si       1.35831220       1.35843939       1.35728193       0.00000000
Si      -0.00538101      -2.71188494       2.71390816       0.00000000
Si       2.71471534      -0.00014661      -2.71328698       0.00000000
Si       0.00040655       2.71384884      -2.71542660       0.00000000
Si      -2.71455337      -2.71520213      -0.00013804       0.00000000
Si       2.71497598      -2.71485535      -0.00017255       0.00000000
Si      -2.71479772       2.71505430      -0.00024157       0.00000000
