10
Lattice="16.28999089631971 0.0 0.0 0.0 16.28999089631971 0.0 0.0 0.0 34.51007289658418" Properties=species:S:1:pos:R:3:initial_magmoms:R:1 pbc="T T T"
Si       0.86157810       1.72279782       1.32259939       0.00000000
Si      -0.17130564       1.20897864      -2.02937419       0.00000000
Si      -1.83545620      -1.04790312       1.17928933       0.00000000
Si       1.72990026      -1.79580960       0.08474481       0.00000000
Si       1.88351496       2.22597963      -1.66867471       0.00000000
Si       2.25748449       0.40663098       2.68743902       0.00000000
Si      -0.47514672      -2.32648893       2.66953519       0.00000000
Si       2.61988812      -2.00311614      -2.07199415       0.00000000
Si       3.44079009       0.36465165      -1.80219425       0.00000000
Si       0.71855190      -3.67517061       1.14811981       0.00000000
