10
Lattice="16.28999089631971 0.0 0.0 0.0 16.28999089631971 0.0 0.0 0.0 34.51007289658418" Properties=species:S:1:pos:R:3:initial_magmoms:R:1 pbc="T T T"
Si      -0.49438521       1.04462883      -2.00741755       0.00000000
Si       0.81518418       1.90552275       1.21217531       0.00000000
Si      -1.98821079      -0.82192824       1.23376827       0.00000000
Si       1.72550196      -1.80188577       0.13714936       0.00000000
Si       2.03698305       0.57480894       2.73117498       0.00000000
Si      -0.72042525      -2.15961417       2.72699581       0.00000000
Si       3.38903676      -0.81792090       1.42974764       0.00000000
Si       0.59354244      -3.51549603       1.33813370       0.00000000
Si      -2.55894723       0.75820176      -2.99909956       0.00000000
Si       0.65537928      -0.79674390       4.08404306       0.00000000
