10
Lattice="16.28999089631971 0.0 0.0 0.0 16.28999089631971 0.0 0.0 0.0 34.51007289658418" Properties=species:S:1:pos:R:3:initial_magmoms:R:1 pbc="T T T"
Si      -2.06456202      -0.28642707      -0.99168201       0.00000000
Si       0.49438521      -1.04462883       2.00741755       0.00000000
Si       1.36370106       1.07018784      -1.57586885       0.00000000
Si      -0.01832625       3.01474536      -1.85712610       0.00000000
Si       1.30956939       0.86089392       3.21959286       0.00000000
Si       0.76059639      -0.09374895      -3.51292032       0.00000000
Si      -1.52217018      -0.57819726      -3.30458290       0.00000000
Si      -1.49382558      -1.86655707       3.24118583       0.00000000
Si      -3.11251401      -2.30972652      -1.11457245       0.00000000
Si       2.01622959       2.88686886       2.07121295       0.00000000
