10
Lattice="16.28999089631971 0.0 0.0 0.0 16.28999089631971 0.0 0.0 0.0 34.51007289658418" Properties=species:S:1:pos:R:3:initial_magmoms:R:1 pbc="T T T"
Si      -0.01396053       1.19686702       2.07895697       0.00000000
Si      -0.25601364      -2.38829223       0.32008110       0.00000000
Si       2.33212527       0.19596870      -0.72364212       0.00000000
Si       0.14221170       1.16283721      -2.18631787       0.00000000
Si      -2.68231140       2.02117360       0.31466302       0.00000000
Si      -0.87052131      -2.15876613       2.61448458       0.00000000
Si       1.96537221       0.13822391       3.09006816       0.00000000
Si       0.23794803       3.51167603       1.75608055       0.00000000
Si       1.92169872      -3.43714017      -0.27784075       0.00000000
Si       3.57164996      -1.70336289      -0.15581307       0.00000000
