10
Lattice="16.28999089631971 0.0 0.0 0.0 16.28999089631971 0.0 0.0 0.0 34.51007289658418" Properties=species:S:1:pos:R:3:initial_magmoms:R:1 pbc="T T T"
Si      -0.86037264      -0.08431704       2.18580022       0.00000000
Si       2.34515191       0.13310559       0.21679240       0.00000000
Si      -0.59616513      -2.21544719      -0.59350457       0.00000000
Si      -1.41362991       1.43703864      -1.38678805       0.00000000
Si      -3.09550725       0.27451908       1.66228212       0.00000000
Si      -2.83587723       2.22571899       0.37163918       0.00000000
Si       3.01773132       0.22134852      -2.03116050       0.00000000
Si       0.70454250      -2.84082029      -2.50387974       0.00000000
Si      -0.47677572      -3.58688600       1.40266270       0.00000000
Si      -0.47115567      -2.13976385       3.29923383       0.00000000
