10
Lattice="16.28999089631971 0.0 0.0 0.0 16.28999089631971 0.0 0.0 0.0 34.51007289658418" Properties=species:S:1:pos:R:3:initial_magmoms:R:1 pbc="T T T"
Si       1.56746520      -1.66392576       0.49701435       0.00000000
Si       1.05886207       2.09645784       0.23083801       0.00000000
Si      -0.16889472       0.07477110      -2.36987705       0.00000000
Si      -1.67570343      -0.12952179       1.74558948       0.00000000
Si      -1.36345671       2.00467998       2.71114735       0.00000000
Si       1.83035973      -1.39170357       2.85812583       0.00000000
Si       0.86274513       2.62099584       2.51989242       0.00000000
Si       0.79883995      -3.70760400      -0.41198148       0.00000000
Si       1.34478741      -1.39103568      -3.34054241       0.00000000
Si       0.46535643       3.53742237      -1.52945278       0.00000000
