10
Lattice="16.28999089631971 0.0 0.0 0.0 16.28999089631971 0.0 0.0 0.0 34.51007289658418" Properties=species:S:1:pos:R:3:initial_magmoms:R:1 pbc="T T T"
Si      -1.35861858       1.36094805      -1.29064984       0.00000000
Si      -1.37386602      -1.33509582       1.36854602       0.00000000
Si       1.33960815       1.37942091       1.36368010       0.00000000
Si       1.43304759      -1.28471085      -1.53373548       0.00000000
Si       0.51321645       2.14009875      -2.70662795       0.00000000
Si       2.70198765      -2.69721675      -0.02689026       0.00000000
Si      -0.01850544      -2.69231346       2.72458558       0.00000000
Si       2.56507227       0.44517312      -2.81036529       0.00000000
Si      -2.73512358      -2.68247430      -0.00556993       0.00000000
Si       2.69747552       0.02148651       2.72475813       0.00000000
