10
Lattice="16.28999089631971 0.0 0.0 0.0 16.28999089631971 0.0 0.0 0.0 34.51007289658418" Properties=species:S:1:pos:R:3:initial_magmoms:R:1 pbc="T T T"
Si      -2.16779175       0.82005489      -0.07864850       0.00000000
Si       0.59350564      -1.44096453       1.76029078       0.00000000
Si       0.50800432      -1.55997927      -1.68761253       0.00000000
Si       1.65476005       1.65494997       0.39324250       0.00000000
Si       2.80969010      -1.43233083       1.02601955       0.00000000
Si      -1.90068462       2.54601297      -1.52696805       0.00000000
Si       2.76645644      -1.94753466      -1.25382067       0.00000000
Si      -0.63425115      -3.46265127      -0.84042427       0.00000000
Si      -2.50646085       1.78860942       1.95920695       0.00000000
Si       3.28644953       0.73469529       1.75494172       0.00000000
