10
Lattice="16.28999089631971 0.0 0.0 0.0 16.28999089631971 0.0 0.0 0.0 34.51007289658418" Properties=species:S:1:pos:R:3:initial_magmoms:R:1 pbc="T T T"
Si      -1.33919927       1.26951228      -1.46378007       0.00000000
Si      -1.79652636      -0.94542273       1.36832516       0.00000000
Si       1.37441988      -1.44441801      -1.43379080       0.00000000
Si       1.69463241       1.03330728       1.47972373       0.00000000
Si       0.05406651      -1.96745733       2.44735221       0.00000000
Si      -2.61589121       2.70130554      -0.09345333       0.00000000
Si       0.01112607       2.62109358      -2.82175220       0.00000000
Si       2.81986416       2.64461634       0.02246607       0.00000000
Si       1.81706805      -0.67261410       3.35120603       0.00000000
Si      -2.70372396      -0.09477522      -2.81947453       0.00000000
