10
Lattice="16.28999089631971 0.0 0.0 0.0 16.28999089631971 0.0 0.0 0.0 34.51007289658418" Properties=species:S:1:pos:R:3:initial_magmoms:R:1 pbc="T T T"
Si       1.14699519       1.74151733      -1.07033051       0.00000000
Si       1.11703788      -2.00665107       0.49190685       0.00000000
Si      -1.68889833      -0.55547271      -1.54591409       0.00000000
Si      -1.30070763       0.62537310       1.91037517       0.00000000
Si      -0.59355873      -3.52502568       0.07623279       0.00000000
Si      -0.83233755       2.80016045      -2.08144170       0.00000000
Si      -2.56368762      -2.48095071      -0.56399844       0.00000000
Si      -3.61274733       0.45098865       1.21834429       0.00000000
Si      -0.70454250       2.84082029       2.50387974       0.00000000
Si       2.31318882       3.06216881       0.47271924       0.00000000
