10
Lattice="16.28999089631971 0.0 0.0 0.0 16.28999089631971 0.0 0.0 0.0 34.51007289658418" Properties=species:S:1:pos:R:3:initial_magmoms:R:1 pbc="T T T"
Si       0.59616513       2.21544719       0.59350457       0.00000000
Si       1.30070763      -0.62537310      -1.91037517       0.00000000
Si      -2.31203970      -0.17438445      -0.69203088       0.00000000
Si       0.11938941      -1.37143881       1.99616726       0.00000000
Si      -0.26420751       2.13113015       2.77930478       0.00000000
Si      -2.44770282      -2.53957842      -0.52010160       0.00000000
Si      -0.38819070      -1.18084581      -3.45628926       0.00000000
Si      -1.40680440      -3.10432014       1.48855832       0.00000000
Si      -0.81746478       3.65248583      -0.79328349       0.00000000
Si      -2.35421451       0.11018556      -3.03467947       0.00000000
