10
Lattice="16.28999089631971 0.0 0.0 0.0 16.28999089631971 0.0 0.0 0.0 34.51007289658418" Properties=species:S:1:pos:R:3:initial_magmoms:R:1 pbc="T T T"
Si      -1.52619381      -1.73288133      -0.50760895       0.00000000
Si       0.00562005       1.44712215       1.89657114       0.00000000
Si       1.51472565      -1.84510314       0.18480154       0.00000000
Si      -0.11938941       1.37143881      -1.99616726       0.00000000
Si      -0.01801674      -3.53636352      -0.34413464       0.00000000
Si      -0.38359692       3.50256896       0.78313752       0.00000000
Si       2.40020118       1.62763164       2.23014569       0.00000000
Si      -2.56709223      -1.16813961      -2.51626886       0.00000000
Si      -2.43142911       1.19705436      -2.68819814       0.00000000
Si       3.25154006      -1.59241266      -1.30348069       0.00000000
