10
Lattice="16.28999089631971 0.0 0.0 0.0 16.28999089631971 0.0 0.0 0.0 34.51007289658418" Properties=species:S:1:pos:R:3:initial_magmoms:R:1 pbc="T T T"
Si       1.36427121      -0.04567716      -1.88169729       0.00000000
Si       0.86636736      -1.70222355       1.37522717       0.00000000
Si      -2.25603468      -0.59482935      -0.39869509       0.00000000
Si       0.33831072       2.32529976       0.38178515       0.00000000
Si      -2.84372706       1.18902339       1.11574579       0.00000000
Si      -1.82529450       2.98258497      -0.16561393       0.00000000
Si       0.57508587       2.23397802       2.69837862       0.00000000
Si       2.92296357      -0.66165093       1.97518513       0.00000000
Si       0.66881853      -3.73471056       0.01380404       0.00000000
Si      -2.66043393      -2.52156168       0.98398626       0.00000000
