10
Lattice="16.28999089631971 0.0 0.0 0.0 16.28999089631971 0.0 0.0 0.0 34.51007289658418" Properties=species:S:1:pos:R:3:initial_magmoms:R:1 pbc="T T T"
Si       1.35763955       1.35633146      -1.35593603       0.00000000
Si      -1.35707579       1.35647807       1.35735095       0.00000000
Si      -1.35664002      -1.35882776      -1.35731644       0.00000000
Si       1.35790019      -1.35837728       1.35717840       0.00000000
Si      -2.71115352       0.00333782      -2.71587523       0.00000000
Si      -2.71395540      -0.00175118       2.71363208       0.00000000
Si      -2.71410201       2.71354910      -0.00037961       0.00000000
Si       0.00375484       2.71245767      -2.71549562       0.00000000
Si       2.71479203       2.71407038      -0.00020706       0.00000000
Si       2.71554137      -0.00167135       2.71342502       0.00000000
