10
Lattice="16.28999089631971 0.0 0.0 0.0 16.28999089631971 0.0 0.0 0.0 34.51007289658418" Properties=species:S:1:pos:R:3:initial_magmoms:R:1 pbc="T T T"
Si      -0.86157810      -1.72279782      -1.32259939       0.00000000
Si      -1.33255458       1.36720341       1.35832758       0.00000000
Si       1.39590639      -1.31616684       1.36483964       0.00000000
Si       0.81197505       1.89465732      -1.14912740       0.00000000
Si       1.02193686       0.50318181      -2.99127409       0.00000000
Si      -1.03288374      -0.51381918      -3.35197358       0.00000000
Si      -2.68458711       0.02739978       2.71367349       0.00000000
Si       0.02974554      -2.69029350       2.71350094       0.00000000
Si      -2.55692075       2.84034069      -0.01999515       0.00000000
Si       0.86832216      -3.51860742      -1.23785458       0.00000000
