10
Lattice="16.28999089631971 0.0 0.0 0.0 16.28999089631971 0.0 0.0 0.0 34.51007289658418" Properties=species:S:1:pos:R:3:initial_magmoms:R:1 pbc="T T T"
Si       1.27669193      -1.43179326      -1.37032674       0.00000000
Si      -1.43822457       1.29837816      -1.35248502       0.00000000
Si      -1.76457843      -1.10061756       1.17924436       0.00000000
Si       1.49284394       1.05642279       1.63484660       0.00000000
Si       2.58829595       2.60835480       0.12416731       0.00000000
Si      -2.63234673       2.60364699       0.29519933       0.00000000
Si       2.61589121      -2.70130554       0.09345333       0.00000000
Si       2.62701728      -0.08021196      -2.72829887       0.00000000
Si      -0.09188231       2.63697633      -2.73047300       0.00000000
Si      -3.45831489       0.69667443       1.58932779       0.00000000
