10
Lattice="16.28999089631971 0.0 0.0 0.0 16.28999089631971 0.0 0.0 0.0 34.51007289658418" Properties=species:S:1:pos:R:3:initial_magmoms:R:1 pbc="T T T"
Si       1.09545200       1.55193201      -1.51067929       0.00000000
Si      -1.49284394      -1.05642279      -1.63484660       0.00000000
Si       2.00982599      -0.80497035       1.21585957       0.00000000
Si      -1.12771435       0.46701801       2.26161889       0.00000000
Si       3.37452074       1.28456424       1.11957641       0.00000000
Si       2.34362438       2.99677356      -0.18162662       0.00000000
Si      -1.55354032       2.92301244       1.89367229       0.00000000
Si       2.49143984       0.22294494      -2.98187903       0.00000000
Si      -0.21615201      -2.48821605      -3.00517334       0.00000000
Si       2.81767967      -2.72442105      -0.06166953       0.00000000
