10
Lattice="16.28999089631971 0.0 0.0 0.0 16.28999089631971 0.0 0.0 0.0 34.51007289658418" Properties=species:S:1:pos:R:3:initial_magmoms:R:1 pbc="T T T"
Si      -1.29209185      -0.26626005       1.90540572       0.00000000
Si      -1.49067672       1.43933553      -1.11550422       0.00000000
Si       2.08002123       0.82627767       0.75621965       0.00000000
Si       0.71485407      -2.05390836      -0.93311838       0.00000000
Si      -0.08726553       3.29761728      -1.13593419       0.00000000
Si       0.33959763      -1.18651473       3.26710494       0.00000000
Si       2.54586636      -0.69004440       2.48910942       0.00000000
Si       3.38929740       1.20938589      -1.17610394       0.00000000
Si      -2.18375595       1.81135026       2.51202412       0.00000000
Si      -3.13693991       2.14317756       0.40086923       0.00000000
