10
Lattice="16.28999089631971 0.0 0.0 0.0 16.28999089631971 0.0 0.0 0.0 34.51007289658418" Properties=species:S:1:pos:R:3:initial_magmoms:R:1 pbc="T T T"
Si      -1.63168948       0.92025468      -1.36169922       0.00000000
Si      -0.47675943      -2.16702612      -0.72892217       0.00000000
Si      -0.37651077       0.49388022       2.26337891       0.00000000
Si       2.20626873       0.49647033      -0.77799552       0.00000000
Si      -2.69294388      -2.17565982       0.00534906       0.00000000
Si      -0.33959763       1.18651473      -3.26710494       0.00000000
Si       1.20321198      -0.98824914       3.14103957       0.00000000
Si       1.74042360       2.01279240      -2.51088529       0.00000000
Si       0.56166291       2.57126247       2.71035362       0.00000000
Si      -3.28644953      -0.73469529      -1.75494172       0.00000000
