10
Lattice="16.28999089631971 0.0 0.0 0.0 16.28999089631971 0.0 0.0 0.0 34.35334932831803" Properties=species:S:1:pos:R:3:initial_magmoms:R:1 pbc="T T T"
Si       1.31836599      -1.37731848       1.41102682       0.00000000
Si      -0.66546279      -1.95145796      -1.17292363       0.00000000
Si      -1.40074452       1.31474309       1.42548272       0.00000000
Si       1.18845324       1.50688364      -1.56347475       0.00000000
Si      -0.76962105      -1.07689280      -3.36393479       0.00000000
Si       2.54376495       2.70511088      -0.03590614       0.00000000
Si      -2.62702314      -2.65758059      -0.03023440       0.00000000
Si      -2.56347585       2.75909594       0.04294171       0.00000000
Si       2.65960314      -0.02285813       2.77973373       0.00000000
Si      -0.05465295       2.69527172       2.78059257       0.00000000
