10
Lattice="16.28999089631971 0.0 0.0 0.0 16.28999089631971 0.0 0.0 0.0 34.35334932831803" Properties=species:S:1:pos:R:3:initial_magmoms:R:1 pbc="T T T"
Si       1.13353965       1.56472943      -1.36719536       0.00000000
Si      -1.60924023      -1.22793761      -1.34352589       0.00000000
Si      -0.35378622       0.16723803       2.45956377       0.00000000
Si       1.72949301      -1.83382787       0.06011839       0.00000000
Si       0.21533751      -2.11442312       2.30363383       0.00000000
Si      -0.21271482      -2.50849451      -2.82858766       0.00000000
Si       2.50747083       0.23099220      -2.83982121       0.00000000
Si       2.41634457       3.00127937       0.01628350       0.00000000
Si       3.75411195      -1.07181994       1.11596918       0.00000000
Si      -2.90478393       0.22381646      -2.82838154       0.00000000
