10
Lattice="16.28999089631971 0.0 0.0 0.0 16.28999089631971 0.0 0.0 0.0 34.35334932831803" Properties=species:S:1:pos:R:3:initial_magmoms:R:1 pbc="T T T"
Si      -1.87136262      -1.00237257      -0.99174740       0.00000000
Si       1.36941885      -1.65701880       0.97113537       0.00000000
Si      -0.37973619       1.80573021       1.47396563       0.00000000
Si       0.90676656       0.64624059      -2.09857858       0.00000000
Si      -0.86283243       3.29188320      -0.24569529       0.00000000
Si      -0.85586031      -2.99033901      -1.63759072       0.00000000
Si      -2.38495374       0.90086958       2.44472312       0.00000000
Si       2.99915190      -0.47050407      -1.94769858       0.00000000
Si       0.83973321       3.01974246      -1.86799877       0.00000000
Si       0.13370832      -3.65892948       0.46624392       0.00000000
