10
Lattice="16.28999089631971 0.0 0.0 0.0 16.28999089631971 0.0 0.0 0.0 34.35334932831803" Properties=species:S:1:pos:R:3:initial_magmoms:R:1 pbc="T T T"
Si      -0.96622506      -1.61266113      -1.53288166       0.00000000
Si       1.74944826       0.93625146      -1.55005834       0.00000000
Si      -1.80664245       1.77512130       0.17661067       0.00000000
Si       0.45237330      -1.77367149       1.76627844       0.00000000
Si      -2.89184967      -2.28990159      -0.13298189       0.00000000
Si      -2.14107615      -0.30107178      -3.10743395       0.00000000
Si       2.82794400      -1.91145231       1.83189338       0.00000000
Si      -3.36070845       1.09156032      -1.63755637       0.00000000
Si      -2.00500578       2.10323448       2.65317936       0.00000000
Si       0.56832552       2.42559729      -3.07390506       0.00000000
