10
Lattice="16.28999089631971 0.0 0.0 0.0 16.28999089631971 0.0 0.0 0.0 34.35334932831803" Properties=species:S:1:pos:R:3:initial_magmoms:R:1 pbc="T T T"
Si      -0.59976522      -2.15456427      -0.86766303       0.00000000
Si       1.09082727       0.28372293       2.12097697       0.00000000
Si      -0.38001312       1.79789472      -1.60787506       0.00000000
Si      -2.15539506       0.47786715       1.17945420       0.00000000
Si       2.42747064      -0.89616177      -1.06351158       0.00000000
Si       1.56833604       2.55443490       1.75171261       0.00000000
Si      -3.65130576      -0.23271894      -0.44020406       0.00000000
Si       0.99966843      -3.58731864       0.12305377       0.00000000
Si      -2.64396474       1.19501811      -2.33898345       0.00000000
Si       3.23794701       1.16227521      -1.78445137       0.00000000
