10
Lattice="16.28999089631971 0.0 0.0 0.0 16.28999089631971 0.0 0.0 0.0 34.35334932831803" Properties=species:S:1:pos:R:3:initial_magmoms:R:1 pbc="T T T"
Si      -1.49591070      -0.71058609      -1.61965827       0.00000000
Si      -0.39457638       2.22648462       0.55119980       0.00000000
Si      -0.26441928      -0.98582193       2.11462160       0.00000000
Si       2.15539506      -0.47786715      -1.17945420       0.00000000
Si       1.84389768      -0.15123636       2.82570197       0.00000000
Si       3.24622233      -0.19414422       0.94152277       0.00000000
Si      -0.75769677      -2.99283138      -1.72794008       0.00000000
Si       1.77538194       1.32002757      -2.78732926       0.00000000
Si      -0.48856968       0.71715096      -3.51843765       0.00000000
Si       1.55562984      -2.63243142      -2.04711723       0.00000000
