10
Lattice="16.28999089631971 0.0 0.0 0.0 16.28999089631971 0.0 0.0 0.0 34.35334932831803" Properties=species:S:1:pos:R:3:initial_magmoms:R:1 pbc="T T T"
Si      -0.40959576       2.32380108       0.40784319       0.00000000
Si       0.38001312      -1.79789472       1.60787506       0.00000000
Si      -2.26395162      -0.60287661      -0.73110839       0.00000000
Si       2.12273361       0.10741626      -1.78496668       0.00000000
Si      -1.77538194      -1.32002757       2.78732926       0.00000000
Si       3.61796013      -0.63561951      -0.17657631       0.00000000
Si      -1.98661437       2.80500768      -1.33892254       0.00000000
Si      -2.48137425       2.35770057       1.60894001       0.00000000
Si      -3.54372660       1.39201308      -0.26689132       0.00000000
Si      -2.06558829      -0.93098979      -3.20767708       0.00000000
