10
Lattice="16.28999089631971 0.0 0.0 0.0 16.28999089631971 0.0 0.0 0.0 34.35334932831803" Properties=species:S:1:pos:R:3:initial_magmoms:R:1 pbc="T T T"
Si      -1.34123715      -1.35446035      -1.36870691       0.00000000
Si       1.35707103      -1.35465807       1.35867573       0.00000000
Si      -1.35747828       1.35999997       1.35805736       0.00000000
Si       1.35715248       1.36022803      -1.39389480       0.00000000
Si      -2.71378368      -2.71403847      -0.00346969       0.00000000
Si       2.71645524      -2.71146465      -0.00020612       0.00000000
Si       0.00003258      -2.71340316       2.71563378       0.00000000
Si       2.71459818       0.00109795       2.71535896       0.00000000
Si      -2.71523349       0.00152474       2.71504977       0.00000000
Si       2.71432125       2.71752712      -0.00309180       0.00000000
