10
Lattice="16.28999089631971 0.0 0.0 0.0 16.28999089631971 0.0 0.0 0.0 34.35334932831803" Properties=species:S:1:pos:R:3:initial_magmoms:R:1 pbc="T T T"
Si      -1.35806472       1.35545832      -1.35764512       0.00000000
Si       1.35537687      -1.36007653      -1.35743900       0.00000000
Si      -1.36200690      -1.34984804       1.37430651       0.00000000
Si       1.34969166       1.35909099       1.38231084       0.00000000
Si       2.71503801      -2.71279470       0.00188944       0.00000000
Si      -0.00009774       2.71352304      -2.71463753       0.00000000
Si       2.71360449       2.71464705       0.00264521       0.00000000
Si      -2.71477737       2.71365336       0.00800433       0.00000000
Si       2.71440270      -0.00109143      -2.71405353       0.00000000
Si      -2.71511946      -0.00167787      -2.71477495       0.00000000
