10
Lattice="16.28999089631971 0.0 0.0 0.0 16.28999089631971 0.0 0.0 0.0 34.35334932831803" Properties=species:S:1:pos:R:3:initial_magmoms:R:1 pbc="T T T"
Si       0.74049453       1.66723263       1.47162960       0.00000000
Si      -1.89384282       1.30140810      -0.53096566       0.00000000
Si       1.14839613      -0.53483328      -2.00757650       0.00000000
Si      -0.14597469      -2.34666572       0.50537240       0.00000000
Si       0.30046905      -2.71607243      -1.75487312       0.00000000
Si      -2.72126079       1.17354789       1.67994843       0.00000000
Si      -0.06248844       0.85465485      -3.42753864       0.00000000
Si      -2.37065112       0.55524465      -2.69093371       0.00000000
Si       2.93301450       1.97848566       0.85172307       0.00000000
Si       0.47879568       0.79345332       3.59236610       0.00000000
