10
Lattice="16.28999089631971 0.0 0.0 0.0 16.28999089631971 0.0 0.0 0.0 34.35334932831803" Properties=species:S:1:pos:R:3:initial_magmoms:R:1 pbc="T T T"
Si       0.08356770       0.65215223       2.26986447       0.00000000
Si      -1.61888391       1.07277632      -1.34661769       0.00000000
Si       2.32924194      -0.16190305      -0.42010734       0.00000000
Si      -0.80355312      -2.21038914       0.46988537       0.00000000
Si       2.75237469      -1.68619323       1.34610239       0.00000000
Si       1.28472714      -3.30258477       0.54831412       0.00000000
Si      -2.07609534       0.11172171       2.94222860       0.00000000
Si       1.81454310      -0.64661430       3.22258644       0.00000000
Si      -3.72896019       0.22028478      -0.77006511       0.00000000
Si      -1.17244017       0.70336962      -3.60686322       0.00000000
