10
Lattice="16.28999089631971 0.0 0.0 0.0 16.28999089631971 0.0 0.0 0.0 34.35334932831803" Properties=species:S:1:pos:R:3:initial_magmoms:R:1 pbc="T T T"
Si      -0.33146892       1.65097521      -1.65538577       0.00000000
Si      -0.37481661       0.90601722       2.18738203       0.00000000
Si       2.26170360      -0.68455467      -0.64714876       0.00000000
Si      -2.10219192      -1.24709724       0.25514247       0.00000000
Si       1.79466930       1.38116394       2.99303723       0.00000000
Si       2.04152796      -1.33817952      -2.89952736       0.00000000
Si      -0.83119725       0.62866368      -3.75829287       0.00000000
Si      -1.59521454      -3.58405154       0.55016920       0.00000000
Si      -2.13741090      -0.56542590       3.36003427       0.00000000
Si       1.56361194       3.07954305      -2.12994320       0.00000000
