10
Lattice="16.28999089631971 0.0 0.0 0.0 16.28999089631971 0.0 0.0 0.0 34.35334932831803" Properties=species:S:1:pos:R:3:initial_magmoms:R:1 pbc="T T T"
Si      -0.68225778      -2.21696474      -0.27259398       0.00000000
Si      -1.75993902       1.34377839      -0.80208245       0.00000000
Si       2.24487603      -0.25117551      -0.74505586       0.00000000
Si       0.49972833       1.02231153       2.10290710       0.00000000
Si       2.87272521      -1.96684320       0.85876551       0.00000000
Si       3.11064066       1.91840814      -0.53972577       0.00000000
Si       1.04871762      -3.51573128       0.68012799       0.00000000
Si       2.39480919       2.45087937       1.62834967       0.00000000
Si      -1.71756873       3.37721022       0.34786221       0.00000000
Si      -1.18381059       2.66286114       2.49817696       0.00000000
