10
Lattice="16.28999089631971 0.0 0.0 0.0 16.28999089631971 0.0 0.0 0.0 34.35334932831803" Properties=species:S:1:pos:R:3:initial_magmoms:R:1 pbc="T T T"
Si      -0.90541449      -1.87110198       1.14427051       0.00000000
Si       1.89182286       0.83579103       1.21321429       0.00000000
Si       0.31328928      -0.42966504      -2.34755500       0.00000000
Si      -1.62140886       1.81415214      -0.03867811       0.00000000
Si      -2.15720325      -0.52473348       2.60338175       0.00000000
Si       0.57174642       2.20529133       2.59718440       0.00000000
Si      -3.37848084       0.95175954       1.22187134       0.00000000
Si      -2.13729687      -0.32180895      -3.02496907       0.00000000
Si      -2.26072620      -3.06932922      -0.38329809       0.00000000
Si       1.87484868       1.14903144      -3.19385023       0.00000000
