10
Lattice="16.28999089631971 0.0 0.0 0.0 16.28999089631971 0.0 0.0 0.0 34.35334932831803" Properties=species:S:1:pos:R:3:initial_magmoms:R:1 pbc="T T T"
Si      -0.53375814       0.71434908      -2.15031475       0.00000000
Si      -2.16349119      -0.47216565       0.76851921       0.00000000
Si       1.09695231       1.87875828       0.93825920       0.00000000
Si       1.68353892      -1.64054961      -0.39526986       0.00000000
Si       2.66804136       1.93699503      -0.80507119       0.00000000
Si      -0.57612843      -1.31908275      -3.30025941       0.00000000
Si       1.39400046       1.89161109      -2.75197965       0.00000000
Si      -1.88123436      -0.11937312       3.09358954       0.00000000
Si       3.57861978      -0.21198177      -0.86982729       0.00000000
Si      -3.53291004       1.18485315      -0.20261617       0.00000000
