10
Lattice="16.28999089631971 0.0 0.0 0.0 16.28999089631971 0.0 0.0 0.0 34.35334932831803" Properties=species:S:1:pos:R:3:initial_magmoms:R:1 pbc="T T T"
Si      -1.35733167       1.35702216      -1.35788560       0.00000000
Si      -1.35685274      -1.35834165       1.35716418       0.00000000
Si       1.35803214       1.35878148       1.35596181       0.00000000
Si       1.35777150      -1.35755973      -1.35754206       0.00000000
Si      -0.00114030       2.71321353       2.71443141       0.00000000
Si      -2.71276460      -0.00017919      -2.71573684       0.00000000
Si       0.00073305      -2.71368594      -2.71487801       0.00000000
Si       2.71466334      -0.00144981      -2.71412223       0.00000000
Si      -2.71467690       2.71422351      -0.00072142       0.00000000
Si       2.71511946       2.71464705      -0.00037789       0.00000000
