10
Lattice="16.28999089631971 0.0 0.0 0.0 16.28999089631971 0.0 0.0 0.0 34.35334932831803" Properties=species:S:1:pos:R:3:initial_magmoms:R:1 pbc="T T T"
Si      -1.49522652       0.74303577      -1.60839036       0.00000000
Si      -0.81047637      -2.05843698       0.72093979       0.00000000
Si      -0.06024042       1.49618763       1.82096901       0.00000000
Si       2.16225315       0.02593368      -1.09645646       0.00000000
Si      -0.50463162       2.85031017      -1.71546981       0.00000000
Si       0.17293464       3.38483394       0.49413885       0.00000000
Si      -0.30662667      -0.18533133      -3.55282537       0.00000000
Si       0.74231901      -2.52387486       2.49824567       0.00000000
Si      -3.61796013       0.63561951       0.17657631       0.00000000
Si       3.50896374      -1.17335241       0.38139110       0.00000000
