10
Lattice="16.28999089631971 0.0 0.0 0.0 16.28999089631971 0.0 0.0 0.0 34.35334932831803" Properties=species:S:1:pos:R:3:initial_magmoms:R:1 pbc="T T T"
Si       1.12692591       1.89082917       0.87989283       0.00000000
Si       1.24049979      -2.02665519       0.01724539       0.00000000
Si      -1.87163955      -0.08990451       1.55301273       0.00000000
Si      -0.42800346       0.99386919      -2.23008327       0.00000000
Si      -0.72262440       3.48027705       1.19807373       0.00000000
Si       2.81158884      -1.96841844      -1.72608500       0.00000000
Si      -3.76909875      -0.91483011       0.35033565       0.00000000
Si      -2.54962935       0.29918214      -2.99162874       0.00000000
Si       2.27445867      -2.55394620       2.00369457       0.00000000
Si       2.78055639       2.77407297      -0.61399776       0.00000000
