10
Lattice="16.28999089631971 0.0 0.0 0.0 16.28999089631971 0.0 0.0 0.0 34.35334932831803" Properties=species:S:1:pos:R:3:initial_magmoms:R:1 pbc="T T T"
Si      -1.35853974      -1.35640314       1.35685500       0.00000000
Si       1.35714728      -1.35703519      -1.35771383       0.00000000
Si      -1.35730170       1.35765747      -1.35778254       0.00000000
Si       1.35805952       1.35710361       1.35761077       0.00000000
Si       2.71297375       0.00024435       2.71608038       0.00000000
Si       2.71470049      -2.71440406      -0.00024047       0.00000000
Si      -2.71311840      -0.00130320       2.71625214       0.00000000
Si      -2.71458450      -2.71491325      -0.00027483       0.00000000
Si       0.00133317      -2.71452392      -2.71525589       0.00000000
Si      -2.71474740       2.71510317       0.00006871       0.00000000
