10
Lattice="16.28999089631971 0.0 0.0 0.0 16.28999089631971 0.0 0.0 0.0 34.35334932831803" Properties=species:S:1:pos:R:3:initial_magmoms:R:1 pbc="T T T"
Si       1.46390085      -1.24217766      -1.35548086       0.00000000
Si      -1.27420380       1.46074059      -1.37093988       0.00000000
Si       0.72304794       1.84463073       1.38382239       0.00000000
Si      -0.98328069      -1.76221962       1.40048377       0.00000000
Si      -1.18128564       1.27342188       3.23783934       0.00000000
Si       0.08516412      -2.58483204      -2.72233269       0.00000000
Si      -2.62573623       0.12660588      -2.72916901       0.00000000
Si       2.68503183       2.70036072       0.02741399       0.00000000
Si       2.72805372      -2.68736130       0.15706360       0.00000000
Si      -2.73136059       2.74022235      -0.04290736       0.00000000
