10
Lattice="16.28999089631971 0.0 0.0 0.0 16.28999089631971 0.0 0.0 0.0 34.35334932831803" Properties=species:S:1:pos:R:3:initial_magmoms:R:1 pbc="T T T"
Si      -1.59420456       0.50399631      -1.68963608       0.00000000
Si      -1.42752528      -0.79451217       1.74470453       0.00000000
Si       1.28596518       2.02872402      -0.30880243       0.00000000
Si       1.84955031      -1.58944788      -0.31818090       0.00000000
Si       0.21590766      -0.05631453      -3.15570043       0.00000000
Si       2.19768390       1.16325261      -2.35894276       0.00000000
Si       0.72262440      -3.48027705      -1.19807373       0.00000000
Si      -1.14901515      -3.57018156       0.35493900       0.00000000
Si      -3.67414434      -0.51668622       0.83451203       0.00000000
Si       2.43862929       2.41424316       1.69245305       0.00000000
