10
Lattice="16.28999089631971 0.0 0.0 0.0 16.28999089631971 0.0 0.0 0.0 34.35334932831803" Properties=species:S:1:pos:R:3:initial_magmoms:R:1 pbc="T T T"
Si       0.73777410      -1.36611428      -1.71622558       0.00000000
Si       1.15074189       2.02320660       0.03462820       0.00000000
Si       0.42313275      -1.52429018       1.76620974       0.00000000
Si      -2.32924194       0.16190305       0.42010734       0.00000000
Si      -1.04451480      -3.14068172       0.96842146       0.00000000
Si      -2.24567424       0.81405528       2.68997182       0.00000000
Si       0.68145957       2.77984452       2.21750994       0.00000000
Si      -0.68330034      -3.29444303      -1.37142082       0.00000000
Si      -0.51469884      -0.48471125       3.64269379       0.00000000
Si      -0.24677721      -0.72546116      -3.73022617       0.00000000
