10
Lattice="16.28999089631971 0.0 0.0 0.0 16.28999089631971 0.0 0.0 0.0 34.35334932831803" Properties=species:S:1:pos:R:3:initial_magmoms:R:1 pbc="T T T"
Si      -0.62377668       2.24327961      -0.27705992       0.00000000
Si       2.06593757      -0.32811318      -1.17907631       0.00000000
Si      -1.74552237      -1.63577664      -0.23721001       0.00000000
Si      -0.07433127      -0.06379164       2.41442345       0.00000000
Si      -0.29541915      -3.25158679       0.76357232       0.00000000
Si       3.11714756       1.71165546      -0.67109305       0.00000000
Si       0.83077438      -2.26743931       2.71209539       0.00000000
Si       0.88095573       1.99275570       2.94078576       0.00000000
Si      -2.44361403       2.12832108      -1.72000446       0.00000000
Si       1.40996207       3.27670092      -1.01146623       0.00000000
