10
Lattice="16.28999089631971 0.0 0.0 0.0 16.28999089631971 0.0 0.0 0.0 34.35334932831803" Properties=species:S:1:pos:R:3:initial_magmoms:R:1 pbc="T T T"
Si       0.22017564       0.65362485       2.25237861       0.00000000
Si       1.98177624      -1.19392898      -0.58761437       0.00000000
Si      -1.82400759      -1.54888808      -0.17863752       0.00000000
Si      -0.62784918       1.71566769      -1.60382136       0.00000000
Si      -0.88617600      -2.58846701      -2.05512157       0.00000000
Si      -2.87272521       1.96684320      -0.85876551       0.00000000
Si      -3.55498299      -0.25012155      -1.13135949       0.00000000
Si       3.16191085      -1.45878809       1.44792578       0.00000000
Si       1.67027886      -0.96218530       3.25316094       0.00000000
Si      -2.04152796       1.33817952       2.89952736       0.00000000
