10
Lattice="16.28999089631971 0.0 0.0 0.0 16.28999089631971 0.0 0.0 0.0 34.35334932831803" Properties=species:S:1:pos:R:3:initial_magmoms:R:1 pbc="T T T"
Si       1.84917631       0.84171244       1.27938613       0.00000000
Si      -1.86947298       1.63488721       0.16169722       0.00000000
Si      -0.89046027      -1.95675547       1.31309709       0.00000000
Si       0.95278648       0.40984500      -2.38216563       0.00000000
Si       0.38451081       1.97730301       2.78837502       0.00000000
Si      -2.36377674      -0.74287354       2.76037702       0.00000000
Si      -0.89547759       3.33056218       1.42657657       0.00000000
Si       0.04768083       2.61349267      -2.67983757       0.00000000
Si       1.50848725      -3.10044379      -1.76617538       0.00000000
Si      -3.67701138       0.56561323       1.28918714       0.00000000
