10
Lattice="16.28999089631971 0.0 0.0 0.0 16.28999089631971 0.0 0.0 0.0 34.35334932831803" Properties=species:S:1:pos:R:3:initial_magmoms:R:1 pbc="T T T"
Si       1.35295359      -1.35980775      -1.35431285       0.00000000
Si       1.35543293       1.35720135       1.35785124       0.00000000
Si      -1.35944937      -1.35760860       1.35750771       0.00000000
Si      -1.35993807       1.35622395      -1.36094305       0.00000000
Si       0.02924220      -2.71790505      -2.70319786       0.00000000
Si       2.71349765      -2.71350675       0.00085883       0.00000000
Si       2.71276460       0.00017919       2.71573684       0.00000000
Si      -0.00191231       2.71440270       2.71501542       0.00000000
Si      -0.00214767      -2.71526607       2.71529025       0.00000000
Si      -2.71705797      -2.71410948      -0.00006871       0.00000000
