10
Lattice="16.28999089631971 0.0 0.0 0.0 16.28999089631971 0.0 0.0 0.0 34.35334932831803" Properties=species:S:1:pos:R:3:initial_magmoms:R:1 pbc="T T T"
Si      -1.34644995      -1.35311256      -1.38574618       0.00000000
Si       1.36652916       1.36365219      -1.38354756       0.00000000
Si       1.40236686      -1.33247313       1.45153288       0.00000000
Si      -1.38282552       1.39696524       1.47736661       0.00000000
Si       2.09145748       0.51013764       3.00691599       0.00000000
Si      -2.69933445      -2.69702453      -0.01030601       0.00000000
Si      -2.70246213       2.73833271      -0.00329792       0.00000000
Si       2.73345453       2.71067229      -0.01525290       0.00000000
Si       2.73788378      -2.70744850      -0.00188944       0.00000000
Si      -2.70479160       0.00518022      -2.74486850       0.00000000
