10
Lattice="16.28999089631971 0.0 0.0 0.0 16.28999089631971 0.0 0.0 0.0 34.35334932831803" Properties=species:S:1:pos:R:3:initial_magmoms:R:1 pbc="T T T"
Si       0.96843531       0.93933027       1.96329501       0.00000000
Si      -0.56392722      -2.38291749      -0.13143599       0.00000000
Si      -2.27568042       0.98626176       0.38163157       0.00000000
Si       1.64064802       0.39410397      -1.86689946       0.00000000
Si      -0.35782614       2.71006956      -2.07367238       0.00000000
Si       3.03397082      -0.19334601       2.17319409       0.00000000
Si      -2.93715216      -0.77848281       2.18291610       0.00000000
Si       0.95155740      -1.44850680      -3.42228257       0.00000000
Si      -2.60703531      -2.75450379       0.95976441       0.00000000
Si       1.59837384       3.21963705       1.65304974       0.00000000
