10
Lattice="16.28999089631971 0.0 0.0 0.0 16.28999089631971 0.0 0.0 0.0 34.35334932831803" Properties=species:S:1:pos:R:3:initial_magmoms:R:1 pbc="T T T"
Si       0.23384295      -2.29487004      -0.26067336       0.00000000
Si       2.12247364       0.84266541      -0.46459496       0.00000000
Si      -0.52900146       0.93071286       2.12503067       0.00000000
Si      -1.50169365      -0.27619695      -2.01269516       0.00000000
Si       1.93139031       0.06485049      -2.68124606       0.00000000
Si      -2.07629082      -0.71480520       2.67791378       0.00000000
Si       1.30145178      -2.21545629      -2.37100079       0.00000000
Si      -1.01359638       3.15299466       1.52473991       0.00000000
Si      -3.12637680      -1.71903483       0.85103600       0.00000000
Si      -3.63369627      -0.23714982      -0.91654787       0.00000000
