10
Lattice="16.28999089631971 0.0 0.0 0.0 16.28999089631971 0.0 0.0 0.0 34.35334932831803" Properties=species:S:1:pos:R:3:initial_magmoms:R:1 pbc="T T T"
Si      -1.24937784       1.43122311      -1.37989237       0.00000000
Si       1.35651717       1.35871632       1.36204236       0.00000000
Si      -1.35653346      -1.35720135       1.36544334       0.00000000
Si       1.38282552      -1.30950423      -1.42326349       0.00000000
Si       0.61835211       2.30483952      -2.67877227       0.00000000
Si      -2.43087525       0.01032786      -2.90819957       0.00000000
Si      -2.70928764      -2.69834076       0.00017520       0.00000000
Si      -2.70317889       2.71046052       0.00367581       0.00000000
Si       2.73024681      -2.70137070      -0.01260082       0.00000000
Si       0.00008145      -2.71148679       2.72164562       0.00000000
