10
Lattice="16.28999089631971 0.0 0.0 0.0 16.28999089631971 0.0 0.0 0.0 34.35334932831803" Properties=species:S:1:pos:R:3:initial_magmoms:R:1 pbc="T T T"
Si      -1.34671059       1.19928609      -1.47784756       0.00000000
Si      -0.90554481       0.10451664       2.14852837       0.00000000
Si       2.26903410       0.58432230      -0.10738863       0.00000000
Si      -0.14959107       3.15494946      -0.92668212       0.00000000
Si       1.53329625      -2.43447534      -1.70454544       0.00000000
Si       2.04670818       2.92495095       0.03960943       0.00000000
Si       2.64782547      -0.44535231      -2.37065726       0.00000000
Si      -0.06545322      -3.63569994       0.52155284       0.00000000
Si      -3.50896374       1.17335241      -0.38139110       0.00000000
Si      -2.76664473      -1.35052245       2.11685457       0.00000000
