10
Lattice="16.28999089631971 0.0 0.0 0.0 16.28999089631971 0.0 0.0 0.0 34.35334932831803" Properties=species:S:1:pos:R:3:initial_magmoms:R:1 pbc="T T T"
Si       1.11452922       1.98912303      -0.66611182       0.00000000
Si      -2.20325508      -0.63926847      -0.69682373       0.00000000
Si       1.83433449      -0.86017716       1.55754738       0.00000000
Si      -0.12186549      -1.36974465      -2.16917475       0.00000000
Si      -1.59874947      -1.20122460       2.22609828       0.00000000
Si      -1.53329625       2.43447534       1.70454544       0.00000000
Si       0.73573785       3.01879764       1.59715681       0.00000000
Si       2.74013994       1.14235254      -2.20315023       0.00000000
Si      -2.03971977      -3.09355245       0.28612921       0.00000000
Si       1.26286093      -0.04965192      -3.61342472       0.00000000
