10
Lattice="16.28999089631971 0.0 0.0 0.0 16.28999089631971 0.0 0.0 0.0 34.35334932831803" Properties=species:S:1:pos:R:3:initial_magmoms:R:1 pbc="T T T"
Si      -1.32818886       0.31102497      -1.91045953       0.00000000
Si       0.48459492      -2.22228180       0.60029076       0.00000000
Si      -1.47965328       0.70652988       1.74504806       0.00000000
Si       2.23655184       0.91263096      -0.26658214       0.00000000
Si       2.94411518       0.25743087       1.90987552       0.00000000
Si      -1.92694410       2.56368762      -1.46496505       0.00000000
Si       1.01359638      -3.15299466      -1.52473991       0.00000000
Si       1.91769138      -1.80833661       2.52466341       0.00000000
Si      -2.28815856       2.71744893       0.87487724       0.00000000
Si      -3.18928878      -1.14401412      -1.94213334       0.00000000
