10
Lattice="16.28999089631971 0.0 0.0 0.0 16.28999089631971 0.0 0.0 0.0 34.35334932831803" Properties=species:S:1:pos:R:3:initial_magmoms:R:1 pbc="T T T"
Si       1.63306828       0.07035651      -1.94079355       0.00000000
Si      -1.01084337      -1.73499903       1.56717804       0.00000000
Si       1.72087464       0.99862587       1.63189635       0.00000000
Si      -1.77531678       1.87934472       0.31166926       0.00000000
Si      -1.41985269      -0.41127363      -2.61535630       0.00000000
Si       1.47794350       2.64039723      -1.54686348       0.00000000
Si       0.32695289       2.31459723       2.98832880       0.00000000
Si      -2.39366889      -0.42549480       2.99044153       0.00000000
Si       3.18639635       2.26312083       0.23044240       0.00000000
Si      -2.36157759      -3.22947621       0.24435551       0.00000000
