10
Lattice="16.28999089631971 0.0 0.0 0.0 16.28999089631971 0.0 0.0 0.0 34.35334932831803" Properties=species:S:1:pos:R:3:initial_magmoms:R:1 pbc="T T T"
Si       0.22232592      -2.34062865      -0.14699806       0.00000000
Si       1.48566170       1.00773198      -1.56579218       0.00000000
Si      -2.19629925       0.22999851      -0.96629155       0.00000000
Si       0.29390418       1.25315712       2.05065563       0.00000000
Si       0.66693722       3.06854634      -0.71980613       0.00000000
Si      -2.12993379       1.36055709       2.20960866       0.00000000
Si      -2.04670818      -2.92495095      -0.03960943       0.00000000
Si       3.57263225       0.27603405      -0.51131554       0.00000000
Si      -3.11448510       2.00121021       0.19560808       0.00000000
Si       1.54904121      -3.11577201       1.68276540       0.00000000
