10
Lattice="16.28999089631971 0.0 0.0 0.0 16.28999089631971 0.0 0.0 0.0 34.35334932831803" Properties=species:S:1:pos:R:3:initial_magmoms:R:1 pbc="T T T"
Si      -1.30549689       1.86945669      -0.54687127       0.00000000
Si       2.04113700       0.14994945       1.20442910       0.00000000
Si       0.97808418      -1.12557384      -1.85631862       0.00000000
Si      -1.65363048      -0.88324380       1.49389058       0.00000000
Si      -0.33093135      -0.89782335       3.43908137       0.00000000
Si      -3.28727313       0.64988955      -1.34362895       0.00000000
Si       1.87390386      -1.55919735       2.80275392       0.00000000
Si      -2.21721561       2.73492810       1.50326905       0.00000000
Si       1.81741014      -3.23424918      -1.17656852       0.00000000
Si       3.10130649      -0.19025091      -2.34667860       0.00000000
