10
Lattice="16.28999089631971 0.0 0.0 0.0 16.28999089631971 0.0 0.0 0.0 34.35334932831803" Properties=species:S:1:pos:R:3:initial_magmoms:R:1 pbc="T T T"
Si      -2.04904905      -0.46486773       1.05969836       0.00000000
Si       1.64364471      -1.14202674       1.31068407       0.00000000
Si       0.26217126       2.40512076       0.09107078       0.00000000
Si      -0.57352203      -0.71811207      -2.26560465       0.00000000
Si      -2.63905754       0.41456421      -2.47550374       0.00000000
Si      -3.70666637       0.33515046      -0.36517631       0.00000000
Si       2.36688813      -2.91219588      -0.12325989       0.00000000
Si       3.56882949       0.10604790       1.57475841       0.00000000
Si      -1.81803568       3.47268591      -0.56909790       0.00000000
Si      -2.66431714      -2.76019389       1.05255286       0.00000000
