10
Lattice="16.28999089631971 0.0 0.0 0.0 16.28999089631971 0.0 0.0 0.0 34.35334932831803" Properties=species:S:1:pos:R:3:initial_magmoms:R:1 pbc="T T T"
Si       1.56025457       1.73838735       0.25493635       0.00000000
Si       0.63841650      -1.90501776       1.29106830       0.00000000
Si      -1.95065487       0.40330782       1.32253598       0.00000000
Si      -0.89048538       0.06310746      -2.22857172       0.00000000
Si      -3.01370769      -0.87221547      -1.73821174       0.00000000
Si      -1.49298732      -2.98217772       1.32552472       0.00000000
Si      -1.36504566       2.22262389       2.64380089       0.00000000
Si       0.93503297      -0.82420884       3.59542355       0.00000000
Si      -2.11788801      -1.30583898       2.92086081       0.00000000
Si      -2.17438173      -2.98089081      -1.05846164       0.00000000
