10
Lattice="16.28999089631971 0.0 0.0 0.0 16.28999089631971 0.0 0.0 0.0 34.35334932831803" Properties=species:S:1:pos:R:3:initial_magmoms:R:1 pbc="T T T"
Si       2.37134670       0.51007248       0.71832894       0.00000000
Si      -1.63306828      -0.07035651       1.94079355       0.00000000
Si      -0.29661646      -1.08080892      -2.30435525       0.00000000
Si      -0.15512478       2.57004072       0.39393008       0.00000000
Si      -3.05292097      -0.48163014      -0.67456274       0.00000000
Si       1.55332806       2.19276432       2.17123595       0.00000000
Si       0.08780636       0.92826936       3.57268990       0.00000000
Si       1.45153185       3.20404752      -1.22861387       0.00000000
Si      -0.93503297       0.82420884      -3.59542355       0.00000000
Si      -2.88568783       1.22751666      -2.27288757       0.00000000
