10
Lattice="16.28999089631971 0.0 0.0 0.0 16.28999089631971 0.0 0.0 0.0 34.35334932831803" Properties=species:S:1:pos:R:3:initial_magmoms:R:1 pbc="T T T"
Si      -1.35834767      -1.35645201       1.35675194       0.00000000
Si       1.35726442      -1.35757602      -1.35682064       0.00000000
Si      -1.35717479       1.35754344      -1.35754206       0.00000000
Si       1.35864907       1.35641943       1.35726724       0.00000000
Si      -2.71089008       0.00029322       2.71374435       0.00000000
Si       2.71433871      -0.00118917      -2.71422529       0.00000000
Si       0.00263610      -2.71534752      -2.71364129       0.00000000
Si      -2.71416437       2.71494189      -0.00006871       0.00000000
Si      -2.71442501      -2.71508688       0.00010306       0.00000000
Si      -2.71493000      -0.00035838      -2.71522154       0.00000000
