10
Lattice="16.28999089631971 0.0 0.0 0.0 16.28999089631971 0.0 0.0 0.0 34.35334932831803" Properties=species:S:1:pos:R:3:initial_magmoms:R:1 pbc="T T T"
Si      -1.35462833      -1.35777150      -1.35682064       0.00000000
Si       1.35707429       1.35638685      -1.35740465       0.00000000
Si      -1.35726442       1.35757602       1.35682064       0.00000000
Si       1.35832862      -1.35760860       1.35675194       0.00000000
Si      -0.00348932      -2.71135647      -2.71278245       0.00000000
Si      -0.00125759       2.71091664      -2.71690486       0.00000000
Si       0.00138465       2.71399545       2.71408788       0.00000000
Si      -2.71458582      -2.71394658      -0.00020612       0.00000000
Si       2.71434080      -0.00047241       2.71446577       0.00000000
Si      -2.71561209       0.00112401       2.71357258       0.00000000
