10
Lattice="16.28999089631971 0.0 0.0 0.0 16.28999089631971 0.0 0.0 0.0 34.35334932831803" Properties=species:S:1:pos:R:3:initial_magmoms:R:1 pbc="T T T"
Si      -1.05328845      -1.81421404       1.12610342       0.00000000
Si       1.33551692      -1.37497537      -1.45342232       0.00000000
Si      -1.40236686       1.33247313      -1.45153288       0.00000000
Si       0.68909062       1.84261077       1.55538311       0.00000000
Si      -1.51548462      -0.93441069       3.29084658       0.00000000
Si       2.61209906       2.79420741       0.15084564       0.00000000
Si      -0.95155740       1.44850680       3.42228257       0.00000000
Si       2.63106062      -2.82672944       0.03143333       0.00000000
Si      -2.78519238       2.72943837       0.02583373       0.00000000
Si       2.67727535      -0.01909188      -2.83745083       0.00000000
