10
Lattice="16.28999089631971 0.0 0.0 0.0 16.28999089631971 0.0 0.0 0.0 34.35334932831803" Properties=species:S:1:pos:R:3:initial_magmoms:R:1 pbc="T T T"
Si      -1.35687881       1.35477414      -1.35939715       0.00000000
Si       1.34817669       1.34025975       1.38344450       0.00000000
Si       1.35607734      -1.35969372      -1.35901926       0.00000000
Si      -1.34274397      -1.35200484       1.38674243       0.00000000
Si       2.71495656       2.71389631      -0.00082448       0.00000000
Si      -0.00040725       2.71380580      -2.71669874       0.00000000
Si      -2.71490287       2.71596654       0.00395064       0.00000000
Si       2.71477737      -0.00156384      -2.71642391       0.00000000
Si       2.71399545      -2.71730232      -0.00140849       0.00000000
Si      -2.71552788      -0.00164529      -2.71666438       0.00000000
