10
Lattice="16.28999089631971 0.0 0.0 0.0 16.28999089631971 0.0 0.0 0.0 34.35334932831803" Properties=species:S:1:pos:R:3:initial_magmoms:R:1 pbc="T T T"
Si      -0.81872449       2.06081436       0.84598605       0.00000000
Si      -1.48566170      -1.00773198       1.56579218       0.00000000
Si       2.08697054      -0.73169793       1.05447665       0.00000000
Si      -0.18772922       0.74301948      -2.37124126       0.00000000
Si       3.64408277       0.68129667      -0.01755457       0.00000000
Si       1.02544898       3.34286180       1.35627099       0.00000000
Si      -3.68196095      -0.77773347       0.59950063       0.00000000
Si      -1.19175752       0.24542514       3.61644781       0.00000000
Si      -1.26333578      -3.34836063       1.41879412       0.00000000
Si      -0.90691058      -1.10253978      -3.69425819       0.00000000
