10
Lattice="16.290000149 0.0 0.0 0.0 16.290000149 0.0 0.0 0.0 29.1751946751" Properties=species:S:1:pos:R:3:initial_magmoms:R:1 pbc="T T T"
Si      -1.36788760       1.36878355       1.25724666       0.00000000
Si      -1.41869611      -1.31005810      -1.31390489       0.00000000
Si       1.33988509       1.44855568      -1.25336636       0.00000000
Si       1.29459889      -1.30407967       1.46112292       0.00000000
Si      -2.77694004       0.04487895       2.50515727       0.00000000
Si       2.68387526       0.08358399      -2.60446963       0.00000000
Si      -0.03859101      -2.65647548      -2.63393658       0.00000000
Si       2.68169240      -2.64650600       0.12740808       0.00000000
Si      -0.04632876       2.79114492      -2.60190221       0.00000000
Si      -2.77659795       0.08490348      -2.62197475       0.00000000
