10
Lattice="16.290000149 0.0 0.0 0.0 16.290000149 0.0 0.0 0.0 29.1751946751" Properties=species:S:1:pos:R:3:initial_magmoms:R:1 pbc="T T T"
Si      -1.33170751       1.36604195      -1.37333476       0.00000000
Si       1.37148606       1.37439872       1.32726713       0.00000000
Si       1.36980331      -1.33913575      -1.38094949       0.00000000
Si      -1.37720548      -1.32812371       1.39083988       0.00000000
Si      -2.63634104      -2.69456150      -0.06599429       0.00000000
Si       0.06151479      -2.67874391       2.67816617       0.00000000
Si      -0.02598255       2.71213841       2.67492772       0.00000000
Si      -2.70270650       2.70673013      -0.00907349       0.00000000
Si      -2.66364308       0.01177767      -2.75688085       0.00000000
Si       2.77764051       0.03601533       2.66249909       0.00000000
