10
Lattice="16.290000149 0.0 0.0 0.0 16.290000149 0.0 0.0 0.0 29.1751946751" Properties=species:S:1:pos:R:3:initial_magmoms:R:1 pbc="T T T"
Si      -2.30653370      -0.08291284       0.36696560       0.00000000
H       -0.90406243       1.56796138      -1.49476192       0.00000000
Si       0.97533118      -0.39831657      -2.15499658       0.00000000
Si       1.02144817       2.15014970       0.39211462       0.00000000
Si       0.05608647      -2.06718473       1.29120659       0.00000000
H       -2.93102715       1.21319776      -0.07988168       0.00000000
Si       2.84146473       1.26262162       1.53975007       0.00000000
Si       2.89307145      -1.45949931      -1.37426837       0.00000000
Si       3.53248653      -0.78600880       0.77305513       0.00000000
Si      -3.15420015      -1.73809415      -1.03011777       0.00000000
