10
Lattice="16.290000149 0.0 0.0 0.0 16.290000149 0.0 0.0 0.0 29.1751946751" Properties=species:S:1:pos:R:3:initial_magmoms:R:1 pbc="T T T"
Si       0.35336268      -0.88270624      -2.13591600       0.00000000
Si      -1.82498501       1.45689616       0.17079159       0.00000000
Si       1.62453655       1.68767660       0.06660697       0.00000000
Si       0.23148090      -1.51754383       1.83500304       0.00000000
H       -0.90088588      -1.45854145       2.83784201       0.00000000
Si       1.06697872       2.72256401       2.07642778       0.00000000
Si       2.29081385      -0.82039699       2.73946325       0.00000000
Si       1.40786326       0.88070257      -3.31829912       0.00000000
Si      -3.66515229       0.16755894       0.80669413       0.00000000
H       -1.82643482       0.30957516       3.28302631       0.00000000
