10
Lattice="16.290000149 0.0 0.0 0.0 16.290000149 0.0 0.0 0.0 29.1751946751" Properties=species:S:1:pos:R:3:initial_magmoms:R:1 pbc="T T T"
Si      -1.27270367       1.35946567       1.42424548       0.00000000
Si       1.34961511      -1.33589404       1.37493940       0.00000000
Si       1.34208913       1.36853920      -1.36335685       0.00000000
Si      -1.37861783      -1.35985663      -1.33669072       0.00000000
Si       2.66107415       0.13155804       2.65800611       0.00000000
Si      -2.66451786       2.71507061       0.07328809       0.00000000
Si       0.01885079      -2.69759633      -2.68435131       0.00000000
Si      -2.68349571       0.01959687      -2.71128002       0.00000000
Si      -0.06220988      -2.63025347       2.76504990       0.00000000
Si       2.72038604       0.02412549      -2.72219154       0.00000000
