10
Lattice="16.290000149 0.0 0.0 0.0 16.290000149 0.0 0.0 0.0 29.1751946751" Properties=species:S:1:pos:R:3:initial_magmoms:R:1 pbc="T T T"
Si      -1.41268510      -1.28265181       1.38261248       0.00000000
Si       1.32367654      -1.39381477      -1.36516571       0.00000000
Si       1.39812184       1.37031481       1.31545118       0.00000000
Si      -1.34890975       1.33433020      -1.40548583       0.00000000
Si       0.00182448       2.71990874       2.62842246       0.00000000
Si      -2.64150497      -2.71520093      -0.04536743       0.00000000
Si       2.58279581      -2.78588325       0.06616934       0.00000000
Si       2.68925096      -0.03463254      -2.74226407       0.00000000
Si      -2.71987616       2.72222192      -0.09581134       0.00000000
Si       2.73756711       2.71917569      -0.05738761       0.00000000
