10
Lattice="16.290000149 0.0 0.0 0.0 16.290000149 0.0 0.0 0.0 29.1751946751" Properties=species:S:1:pos:R:3:initial_magmoms:R:1 pbc="T T T"
H       -0.17891307       1.38736881       0.61084105       0.00000000
Si       0.83417833      -1.24452506       1.71284067       0.00000000
Si       1.89547184       0.01662069      -1.33873298       0.00000000
Si      -1.90047287      -0.54848919      -1.28502145       0.00000000
Si       0.64205407       1.12334049      -2.94173488       0.00000000
Si      -2.63008568       1.64154169      -0.88287057       0.00000000
Si      -0.69124987       2.66965247      -1.78444243       0.00000000
Si       1.87341518       0.60938447       2.66479518       0.00000000
Si       2.33157143      -2.27239149      -1.03735322       0.00000000
Si      -0.99764848      -2.26605468       2.65629936       0.00000000
