10
Lattice="16.290000149 0.0 0.0 0.0 16.290000149 0.0 0.0 0.0 29.1751946751" Properties=species:S:1:pos:R:3:initial_magmoms:R:1 pbc="T T T"
Si      -2.19561509       0.72521452       0.46268941       0.00000000
Si      -0.27104931      -2.03199833       1.19775844       0.00000000
Si       1.57677427       1.30893409       1.20654018       0.00000000
Si      -0.28518903       0.88904305      -2.24208454       0.00000000
H        2.24313302      -0.94701916      -1.63827471       0.00000000
H        0.80586631      -1.86996170      -2.17547757       0.00000000
H        1.60114411      -2.62505207      -0.53028834       0.00000000
H        1.03420324      -2.50681925       1.80609043       0.00000000
Si      -2.14832522       2.87328235      -0.51552569       0.00000000
Si      -2.41228838      -0.08175951      -2.92221667       0.00000000
