10
Lattice="16.290000149 0.0 0.0 0.0 16.290000149 0.0 0.0 0.0 29.1751946751" Properties=species:S:1:pos:R:3:initial_magmoms:R:1 pbc="T T T"
Si      -0.92693359       1.04370031      -1.83406944       0.00000000
Si       1.07088832       1.75977614       1.06346502       0.00000000
Si       1.33330393      -1.54631197      -1.15729245       0.00000000
Si      -1.93883582      -1.02811078       0.90157187       0.00000000
H        0.51233679      -1.28228365       2.39528348       0.00000000
Si       0.69124987      -2.66965247       1.78444243       0.00000000
Si      -1.69627772      -1.00199791      -2.71340981       0.00000000
Si      -0.47675943      -2.87290280      -1.76174413       0.00000000
Si      -2.22423662       2.54425367      -0.51292910       0.00000000
Si      -1.20922300      -3.21814166       0.49942098       0.00000000
