10
Lattice="16.290000149 0.0 0.0 0.0 16.290000149 0.0 0.0 0.0 29.1751946751" Properties=species:S:1:pos:R:3:initial_magmoms:R:1 pbc="T T T"
Si       1.36461331       1.35547462       1.34696039       0.00000000
Si       1.37005417      -1.36370107      -1.33552371       0.00000000
Si      -1.34832331      -1.34684092       1.37858630       0.00000000
Si      -1.34858395       1.36104580      -1.36449468       0.00000000
Si      -0.01005093       2.71901279       2.68061689       0.00000000
Si      -2.69610905      -2.70723512       0.02652025       0.00000000
Si       2.72139113       0.01174509      -2.68207565       0.00000000
Si       2.71510319      -0.02055798       2.68951532       0.00000000
Si       0.02313180      -2.71990874      -2.69835541       0.00000000
Si      -2.70853832       0.00733050      -2.71863217       0.00000000
