10
Lattice="16.290000149 0.0 0.0 0.0 16.290000149 0.0 0.0 0.0 29.1751946751" Properties=species:S:1:pos:R:3:initial_magmoms:R:1 pbc="T T T"
Si      -2.24552765       0.50718915      -0.27462611       0.00000000
Si       0.93125695      -0.81425403      -1.99561249       0.00000000
Si       0.28531642      -1.82331382       1.57190114       0.00000000
Si       1.33263930       1.97794811       0.48839276       0.00000000
Si       2.96725611       0.79597828       1.70153236       0.00000000
Si       1.63135392      -0.61014358       3.05434238       0.00000000
Si       2.77237884      -1.98865064      -1.06165616       0.00000000
Si      -0.93672388      -1.71443618      -3.11993697       0.00000000
Si      -2.97588981       1.14129370       1.90447560       0.00000000
Si       1.45614845      -3.41487273       0.28574186       0.00000000
