10
Lattice="16.290000149 0.0 0.0 0.0 16.290000149 0.0 0.0 0.0 29.1751946751" Properties=species:S:1:pos:R:3:initial_magmoms:R:1 pbc="T T T"
H        1.29650482       0.54952686       0.92216955       0.00000000
Si       1.22852665      -1.85217302      -0.66548619       0.00000000
Si      -1.02434779       1.33545421      -1.61732692       0.00000000
Si      -1.78645916      -0.58691242       1.44107957       0.00000000
H        0.95980681       1.24576147      -2.67177680       0.00000000
Si      -2.09453564       2.44602497       0.24988554       0.00000000
Si      -1.79245388      -0.70571539      -2.62789731       0.00000000
Si       2.47821401       1.08752041       1.97349769       0.00000000
Si      -0.30463929      -2.57403179      -2.27654044       0.00000000
Si      -2.85734748      -2.34668855       0.37761454       0.00000000
