10
Lattice="16.290000149 0.0 0.0 0.0 16.290000149 0.0 0.0 0.0 29.1751946751" Properties=species:S:1:pos:R:3:initial_magmoms:R:1 pbc="T T T"
Si      -1.36852291      -1.34871427      -1.33771185       0.00000000
Si      -1.36505314       1.34737849       1.35011131       0.00000000
Si       1.32546844      -1.38357487       1.35930150       0.00000000
Si       1.38510939       1.33182154      -1.36738302       0.00000000
Si       0.07429869      -2.68062052      -2.61981578       0.00000000
Si       2.69515283      -0.01195686       2.68201730       0.00000000
Si      -0.00648342       2.71301807       2.68076276       0.00000000
Si      -2.69433344       2.71394660      -0.02549912       0.00000000
Si       0.05515794       2.74062962      -2.67804947       0.00000000
Si      -2.72095130      -0.02985957       2.70599931       0.00000000
