10
Lattice="16.290000149 0.0 0.0 0.0 16.290000149 0.0 0.0 0.0 29.1751946751" Properties=species:S:1:pos:R:3:initial_magmoms:R:1 pbc="T T T"
Si      -1.25341777       1.10671980      -1.60300190       0.00000000
Si      -1.89547184      -0.01662069       1.33873298       0.00000000
Si       1.57371175       1.68680671       0.44255853       0.00000000
Si       0.43609959      -2.28901218       0.30137976       0.00000000
H        1.83568754       0.57856053      -2.38419691       0.00000000
H       -2.07438491       1.37074813       1.94957403       0.00000000
Si      -1.06129351      -1.26114575       3.05157365       0.00000000
Si       2.04863042      -2.46196311      -1.37794444       0.00000000
Si       0.84334960       2.32091126       2.62166024       0.00000000
Si      -2.58672170       2.65303178      -0.44570945       0.00000000
