10
Lattice="16.290000149 0.0 0.0 0.0 16.290000149 0.0 0.0 0.0 29.1751946751" Properties=species:S:1:pos:R:3:initial_magmoms:R:1 pbc="T T T"
Si      -1.84016729      -1.28933722       0.63590254       0.00000000
Si       1.82498501      -1.45689616      -0.17079159       0.00000000
Si      -1.02016126       0.83012212      -1.95608010       0.00000000
Si       0.65982646       1.77116285       1.58307524       0.00000000
H       -0.00144981      -1.14732100       3.11223472       0.00000000
Si      -2.55046016       2.10025343      -0.73824913       0.00000000
Si       3.44952156       0.23078043      -0.10418462       0.00000000
Si      -3.49720239       0.36417924       0.54648057       0.00000000
Si      -1.35853714      -1.72276526       2.84210159       0.00000000
Si       2.89196373       1.26566785       1.90563619       0.00000000
