10
Lattice="16.290000149 0.0 0.0 0.0 16.290000149 0.0 0.0 0.0 29.1751946751" Properties=species:S:1:pos:R:3:initial_magmoms:R:1 pbc="T T T"
Si      -1.39002571      -1.34496757      -1.27532070       0.00000000
Si       1.32995145      -1.40880808       1.31066645       0.00000000
Si      -1.42472341       1.36037791       1.27014210       0.00000000
Si       1.29528307       1.31414689      -1.46918403       0.00000000
Si       2.62648071       2.67493205      -0.09140588       0.00000000
Si       2.66480293      -0.03046230       2.65430086       0.00000000
Si      -0.06823881       2.70998813       2.62436711       0.00000000
Si      -0.13230738      -2.74652661      -2.63933982       0.00000000
Si      -2.74949139      -0.02668302       2.65255035       0.00000000
Si       2.68040387      -2.73548198      -0.09563629       0.00000000
