10
Lattice="16.290000149 0.0 0.0 0.0 16.290000149 0.0 0.0 0.0 29.1751946751" Properties=species:S:1:pos:R:3:initial_magmoms:R:1 pbc="T T T"
Si       1.71828551      -1.63046611      -0.10514740       0.00000000
Si      -2.05754105      -1.00905148      -0.72109411       0.00000000
Si       1.39444030       1.73838737      -0.91420473       0.00000000
Si      -1.00747135       1.24015771       1.84244272       0.00000000
H        0.80099560      -1.46746837      -2.64578170       0.00000000
H       -0.60654187       0.56174437      -3.09828897       0.00000000
Si      -2.36349983       2.64808613       0.52920886       0.00000000
Si       2.15704037      -1.87823702       2.17790465       0.00000000
Si      -3.47156193       0.93957463      -0.71735969       0.00000000
Si       3.58787253      -0.73412515      -1.38173722       0.00000000
