10
Lattice="16.290000149 0.0 0.0 0.0 16.290000149 0.0 0.0 0.0 29.1751946751" Properties=species:S:1:pos:R:3:initial_magmoms:R:1 pbc="T T T"
Si       1.31038390      -1.42633612       1.29797524       0.00000000
Si      -1.34991973      -1.38613240      -1.32440796       0.00000000
Si       1.37686339       1.32967126      -1.35679243       0.00000000
Si      -1.29873655       1.35749458       1.41829374       0.00000000
Si       2.66150909      -0.08394237       2.61030467       0.00000000
Si      -2.66737675       2.69962769       0.05998420       0.00000000
Si       0.01052334       2.68791518      -2.68487647       0.00000000
Si      -2.68883231      -0.02686221      -2.68729801       0.00000000
Si       0.03859101      -2.73618246      -2.65882302       0.00000000
Si      -2.63393012      -0.04100193       2.76090702       0.00000000
