10
Lattice="16.290000149 0.0 0.0 0.0 16.290000149 0.0 0.0 0.0 29.1751946751" Properties=species:S:1:pos:R:3:initial_magmoms:R:1 pbc="T T T"
Si      -1.33356457      -1.33983296       1.32839038       0.00000000
Si       1.49786551      -1.23596141      -1.27955985       0.00000000
Si      -1.24950817       1.37055916      -1.41273586       0.00000000
Si       1.41931513       1.42917058       1.23572996       0.00000000
Si       0.65823004       2.16070562      -2.53429745       0.00000000
H       -0.55446274      -0.45797706      -3.33351398       0.00000000
Si       2.36327177       0.49218606      -2.66142778       0.00000000
Si       0.10093284      -2.68592780       2.58960487       0.00000000
Si      -2.66325212       0.08055405       2.61379110       0.00000000
Si      -2.69452892      -2.62242337      -0.08097867       0.00000000
