10
Lattice="16.290000149 0.0 0.0 0.0 16.290000149 0.0 0.0 0.0 29.1751946751" Properties=species:S:1:pos:R:3:initial_magmoms:R:1 pbc="T T T"
H        1.27842292       0.03950325       0.82466605       0.00000000
Si      -1.36695256      -1.38912813       1.32481641       0.00000000
Si       0.60730750      -1.51562161      -1.75564651       0.00000000
Si      -0.80071541       2.25838046       0.21259964       0.00000000
Si       0.51372144       1.98811307      -1.69872571       0.00000000
Si       2.72564283       1.91254376      -0.89518250       0.00000000
Si       0.47416932      -2.56352474       2.25877275       0.00000000
H       -3.06457257       0.99013879      -1.50850344       0.00000000
Si       3.59023458      -0.16384482      -0.10220071       0.00000000
Si       2.67357998      -2.24729674      -0.91435060       0.00000000
