10
Lattice="16.290000149 0.0 0.0 0.0 16.290000149 0.0 0.0 0.0 29.1751946751" Properties=species:S:1:pos:R:3:initial_magmoms:R:1 pbc="T T T"
Si       1.24194961      -1.39046554       1.37024219       0.00000000
Si      -1.36104580       1.34583094       1.33610722       0.00000000
Si      -1.29209023      -1.43679430      -1.31428417       0.00000000
Si       1.45741744       1.29707497      -1.30311007       0.00000000
Si       2.67856472      -0.06338439       2.58573915       0.00000000
Si      -2.64772775      -0.07038909      -2.65106241       0.00000000
Si       0.09425394       2.62425386      -2.68222152       0.00000000
Si       0.02453274       2.69803127       2.63058143       0.00000000
Si      -2.59915097      -2.78420700       0.10946533       0.00000000
Si       0.13349655      -2.79973300      -2.61179260       0.00000000
