10
Lattice="16.290000149 0.0 0.0 0.0 16.290000149 0.0 0.0 0.0 29.1751946751" Properties=species:S:1:pos:R:3:initial_magmoms:R:1 pbc="T T T"
Si      -0.53284590      -0.25655121       1.38687205       0.00000000
H       -0.67474810      -0.92685214      -1.62146979       0.00000000
H       -1.60029703       0.84126448      -1.17628550       0.00000000
H        1.26543979       1.76233367       0.42344878       0.00000000
Si       0.45761868      -0.98585452      -2.62430876       0.00000000
Si       2.17939025       1.83296711      -0.78930572       0.00000000
Si       2.51695163      -0.28870767      -1.71984855       0.00000000
Si       1.15673662      -1.18452736       2.69858881       0.00000000
Si      -2.33214158      -1.85145626       1.26880004       0.00000000
Si      -1.37902996       1.61824861       2.50460294       0.00000000
