10
Lattice="16.290000149 0.0 0.0 0.0 16.290000149 0.0 0.0 0.0 29.1751946751" Properties=species:S:1:pos:R:3:initial_magmoms:R:1 pbc="T T T"
Si      -1.20102913      -1.13993283      -1.68997315       0.00000000
Si       0.57656827      -1.74107522       1.51661414       0.00000000
Si      -1.99458020       0.88545925       0.98122015       0.00000000
Si       1.43702692       1.42594516      -1.34357607       0.00000000
H        0.46524240       2.27991584       2.01393451       0.00000000
Si      -2.48227022      -2.58608639      -0.40795675       0.00000000
Si      -2.73492812       2.21167703      -0.80654826       0.00000000
Si      -2.63098163       0.48954708      -2.61783187       0.00000000
Si      -3.51238467      -0.96278788       0.90950752       0.00000000
H       -0.75194641       0.11384592       3.74148532       0.00000000
