10
Lattice="16.290000149 0.0 0.0 0.0 16.290000149 0.0 0.0 0.0 29.1751946751" Properties=species:S:1:pos:R:3:initial_magmoms:R:1 pbc="T T T"
Si       1.44091567      -0.29113488      -0.44215008       0.00000000
Si      -1.98415460       0.08969274       1.05444989       0.00000000
Si      -1.22477995       1.96173956      -0.22479487       0.00000000
Si       0.65510236       2.66778074       1.04878990       0.00000000
Si       1.07922880      -0.05895351      -2.80289013       0.00000000
Si      -0.60432643       1.61334532      -2.55125407       0.00000000
Si      -0.95980681      -1.24576147       2.67177680       0.00000000
Si       1.89053597      -2.42559731       0.44471749       0.00000000
Si       2.66375711       1.29860623       0.97144646       0.00000000
H        1.63295848       2.40642398      -1.41835209       0.00000000
