10
Lattice="16.290000149 0.0 0.0 0.0 16.290000149 0.0 0.0 0.0 29.1751946751" Properties=species:S:1:pos:R:3:initial_magmoms:R:1 pbc="T T T"
Si       2.23213727      -0.50549499       0.32256095       0.00000000
Si      -1.04225050       0.67190386       2.07263501       0.00000000
Si      -0.05608647       2.06718473      -1.29120659       0.00000000
Si      -0.65982646      -1.77116285      -1.58307524       0.00000000
Si      -2.36262017       1.98427189      -0.92424099       0.00000000
H       -0.66127627      -2.91848385       1.52915948       0.00000000
Si       2.78969511      -1.54038241      -1.68725986       0.00000000
Si      -3.10852299       1.40357899       1.23133909       0.00000000
Si       3.47640006       1.28117593      -0.51815146       0.00000000
Si       1.16515855      -3.22805901      -1.75386683       0.00000000
