10
Lattice="16.290000149 0.0 0.0 0.0 16.290000149 0.0 0.0 0.0 29.1751946751" Properties=species:S:1:pos:R:3:initial_magmoms:R:1 pbc="T T T"
Si       1.35891181       1.36374994      -1.34235071       0.00000000
Si      -1.35254242       1.38634417       1.33584464       0.00000000
Si       1.38621385      -1.34258923       1.34853585       0.00000000
Si      -1.35562123      -1.36239787      -1.36026428       0.00000000
Si      -2.71086779       0.03197727       2.66652527       0.00000000
Si       0.04632876      -2.79114492       2.60190221       0.00000000
Si       2.69084738       2.71801422       0.04119537       0.00000000
Si      -0.00166158       2.71688532      -2.69424170       0.00000000
Si       2.70985781       0.00276930      -2.70162303       0.00000000
Si      -2.72709263      -0.01453068      -2.69952241       0.00000000
