10
Lattice="16.290000149 0.0 0.0 0.0 16.290000149 0.0 0.0 0.0 29.1751946751" Properties=species:S:1:pos:R:3:initial_magmoms:R:1 pbc="T T T"
Si      -1.34395759      -1.34628729      -1.38745556       0.00000000
Si       1.30706074       1.34741270      -1.42374950       0.00000000
Si       1.42550533      -1.36467684       1.29736256       0.00000000
Si      -1.41934771       1.35379838       1.33660319       0.00000000
Si       0.08026083      -2.65352537       2.67449010       0.00000000
Si      -2.67991517      -2.70076637      -0.01315801       0.00000000
Si       2.59915097       2.78420700      -0.10946533       0.00000000
Si      -0.10788867       2.82125046       2.61966991       0.00000000
Si       2.67949325      -0.04361648       2.76744227       0.00000000
Si       2.73264752      -0.01552600      -2.72125793       0.00000000
