10
Lattice="16.290000149 0.0 0.0 0.0 16.290000149 0.0 0.0 0.0 29.1751946751" Properties=species:S:1:pos:R:3:initial_magmoms:R:1 pbc="T T T"
H       -1.13236678       0.05900238       1.00283897       0.00000000
Si       0.22087611      -2.13449501      -0.91216246       0.00000000
Si       2.05933295       0.69714685       0.90446021       0.00000000
Si      -0.23148090       1.51754383      -1.83500304       0.00000000
H       -0.45761868       0.98585452       2.62430876       0.00000000
H       -2.05791572       1.82711900       1.44802326       0.00000000
Si       2.34559712      -1.54844596      -1.91222978       0.00000000
H        2.42869241      -2.37008099       0.66612804       0.00000000
Si       3.31762143       0.44800758      -1.03332705       0.00000000
Si       1.72177157       2.81882163       1.83500304       0.00000000
