10
Lattice="16.290000149 0.0 0.0 0.0 16.290000149 0.0 0.0 0.0 29.1751946751" Properties=species:S:1:pos:R:3:initial_magmoms:R:1 pbc="T T T"
H       -0.23626690      -0.54550323      -1.70263519       0.00000000
Si       1.65703511      -1.65351647       0.08942197       0.00000000
Si       0.94674223       1.73607419      -1.28472970       0.00000000
Si      -0.24337423       0.83061082       2.19379959       0.00000000
Si      -1.82658143      -1.03764043      -1.16709531       0.00000000
Si      -2.51204834       1.29533194       2.01775646       0.00000000
Si      -0.41827996      -2.33587199      -2.60855416       0.00000000
Si       2.47704113       0.46594287      -2.50256067       0.00000000
Si       3.49720239      -0.36417924      -0.54648057       0.00000000
Si       1.04850586       2.81056260       2.26793376       0.00000000
