10
Lattice="16.290000149 0.0 0.0 0.0 16.290000149 0.0 0.0 0.0 29.1751946751" Properties=species:S:1:pos:R:3:initial_magmoms:R:1 pbc="T T T"
Si       1.29209023       1.43679430       1.31428417       0.00000000
Si      -1.35563752       1.36640521      -1.33677824       0.00000000
Si      -1.30706074      -1.34741270       1.42374950       0.00000000
Si       1.42558678      -1.36293870      -1.29750843       0.00000000
Si       2.53403984       0.04632876       2.68452636       0.00000000
Si      -2.65101833      -2.69369999       0.03629394       0.00000000
Si       0.06511113      -2.70389567      -2.67816617       0.00000000
Si      -2.71041167      -0.00047241      -2.67650318       0.00000000
Si       0.02019960       2.70267392      -2.69774273       0.00000000
Si       2.76061746       0.00053757      -2.66652527       0.00000000
