10
Lattice="16.290000149 0.0 0.0 0.0 16.290000149 0.0 0.0 0.0 29.1751946751" Properties=species:S:1:pos:R:3:initial_magmoms:R:1 pbc="T T T"
Si       0.08311158      -0.69300919      -2.22914534       0.00000000
Si      -0.98886817      -1.78749194       1.15160328       0.00000000
Si       1.83923876       0.88135417       1.18534440       0.00000000
Si      -1.63312138       1.73524340      -0.08400443       0.00000000
H        2.53428419      -0.94718206      -0.73543372       0.00000000
Si      -2.30422052      -0.46426500       2.55200388       0.00000000
Si       0.55203553       2.33046371       2.51307833       0.00000000
Si      -2.12035529      -0.31107384      -3.03268855       0.00000000
Si      -2.07187625       1.98301430      -2.36705648       0.00000000
Si       2.02194740       0.33510159      -3.13071720       0.00000000
