10
Lattice="16.290000149 0.0 0.0 0.0 16.290000149 0.0 0.0 0.0 29.1751946751" Properties=species:S:1:pos:R:3:initial_magmoms:R:1 pbc="T T T"
Si       1.34012944      -1.35527914      -1.34468093       0.00000000
Si       1.30409596       1.18499977       1.55164276       0.00000000
Si      -1.32229189      -1.40273191       1.34173890       0.00000000
Si      -1.21427290       1.41488425      -1.44924483       0.00000000
Si      -0.16374708      -2.64130949      -2.62958568       0.00000000
Si       0.40127157       2.90256526      -2.38967805       0.00000000
Si      -2.70441695      -0.04585635       2.66513157       0.00000000
Si      -2.69812901       2.71412808      -0.11243741       0.00000000
Si      -0.01723482       2.67397696       2.75871976       0.00000000
Si      -2.73517247      -2.69882948      -0.00156146       0.00000000
