10
Lattice="16.290000149 0.0 0.0 0.0 16.290000149 0.0 0.0 0.0 29.1751946751" Properties=species:S:1:pos:R:3:initial_magmoms:R:1 pbc="T T T"
Si       1.06319944      -1.46637694      -1.47617733       0.00000000
Si      -1.31165452      -1.35909100       1.38800989       0.00000000
Si      -1.44743167       1.35695701      -1.28318341       0.00000000
Si       1.81727984       0.74880244       1.38532577       0.00000000
Si       2.15920694      -1.20076849       2.75991507       0.00000000
Si       0.28716012      -2.66310551       2.60029758       0.00000000
Si       2.44033976      -0.14895576      -2.83396171       0.00000000
Si      -2.70132185       0.11650608       2.60356520       0.00000000
Si       2.28353222      -3.00322443      -0.23503537       0.00000000
Si      -0.13704777       2.58875795      -2.78237997       0.00000000
