10
Lattice="16.290000149 0.0 0.0 0.0 16.290000149 0.0 0.0 0.0 29.1751946751" Properties=species:S:1:pos:R:3:initial_magmoms:R:1 pbc="T T T"
Si      -1.31201290      -1.35969373      -1.34535575       0.00000000
Si       1.31711167      -1.39114972       1.34147545       0.00000000
Si      -1.41881014       1.33046947       1.30182636       0.00000000
Si       1.30888522       1.28956528      -1.46993675       0.00000000
Si      -0.04540023       2.65686644       2.66515403       0.00000000
Si       2.69550632      -0.02731833       2.64616098       0.00000000
Si       2.68091048       2.69581583      -0.15821708       0.00000000
Si       2.64401363      -2.75019186      -0.02462386       0.00000000
Si      -2.77014711      -0.04497669       2.64837830       0.00000000
Si      -2.77065210       2.64947078      -0.10517658       0.00000000
