10
Lattice="16.290000149 0.0 0.0 0.0 16.290000149 0.0 0.0 0.0 29.1751946751" Properties=species:S:1:pos:R:3:initial_magmoms:R:1 pbc="T T T"
Si      -1.34117200      -1.33245685       1.37362652       0.00000000
Si       1.37450134      -1.35793441      -1.32081941       0.00000000
Si       1.35858601       1.30709332       1.39118998       0.00000000
Si      -1.35550720       1.33548679      -1.37747764       0.00000000
Si      -0.07051941       2.75162538       2.51294704       0.00000000
Si       0.00079821      -2.72174951      -2.65263787       0.00000000
Si      -2.77936725       0.03748329       2.60753302       0.00000000
Si       2.72862390       0.01655064      -2.66378280       0.00000000
Si      -2.72362286      -2.68089419       0.03162591       0.00000000
Si       2.70658352       2.69832449       0.04274166       0.00000000
