10
Lattice="16.290000149 0.0 0.0 0.0 16.290000149 0.0 0.0 0.0 29.1751946751" Properties=species:S:1:pos:R:3:initial_magmoms:R:1 pbc="T T T"
Si       1.35405251      -1.38820123      -1.33050558       0.00000000
Si       1.36422398       1.32973642       1.37925733       0.00000000
Si      -1.34066701      -1.35314515       1.38526742       0.00000000
Si      -1.34762284       1.38442195      -1.36274417       0.00000000
Si      -2.69061932       2.68786631       0.06068440       0.00000000
Si       2.71047683       2.67739184       0.01047389       0.00000000
Si      -2.69715161      -2.70275537       0.03104241       0.00000000
Si       2.69995349      -0.05927931      -2.71131794       0.00000000
Si      -2.69518052       0.05167188      -2.75064027       0.00000000
Si       0.03396564       2.67915116       2.77038896       0.00000000
