10
Lattice="16.290000149 0.0 0.0 0.0 16.290000149 0.0 0.0 0.0 29.1751946751" Properties=species:S:1:pos:R:3:initial_magmoms:R:1 pbc="T T T"
Si      -1.37795482      -1.35550720       1.33033053       0.00000000
Si      -1.38323278       1.35901281      -1.32140292       0.00000000
Si       1.34899120       1.36939280       1.35267873       0.00000000
Si       1.35022924      -1.37777563      -1.34760224       0.00000000
Si      -0.00576666      -2.69799869       2.67953740       0.00000000
Si      -0.03473028       2.73253350      -2.65803529       0.00000000
Si      -2.73957077      -0.01350441      -2.65800611       0.00000000
Si      -2.69635340       0.01454697       2.71448929       0.00000000
Si       2.72945469      -0.03394836      -2.68222152       0.00000000
Si       2.72477946       0.02309922       2.68776481       0.00000000
