10
Lattice="16.290000149 0.0 0.0 0.0 16.290000149 0.0 0.0 0.0 29.1751946751" Properties=species:S:1:pos:R:3:initial_magmoms:R:1 pbc="T T T"
Si      -1.37114560       1.35744571       1.33205186       0.00000000
Si      -1.37230219      -1.34636851      -1.34515153       0.00000000
Si       1.34977312       1.36423864      -1.35658820       0.00000000
Si       1.36927225      -1.34469064       1.36326932       0.00000000
Si      -0.00500103       2.71581995       2.66185724       0.00000000
Si      -0.01311345      -2.70465805      -2.68426379       0.00000000
Si       2.71911053      -2.69427806      -0.01018214       0.00000000
Si       2.72047889       0.01853802      -2.69520448       0.00000000
Si      -2.71717202      -2.70115407       0.01948903       0.00000000
Si      -2.70347213       0.02262681      -2.71688165       0.00000000
