10
Lattice="16.290000149 0.0 0.0 0.0 16.290000149 0.0 0.0 0.0 29.1751946751" Properties=species:S:1:pos:R:3:initial_magmoms:R:1 pbc="T T T"
Si      -1.37450134       1.35793441       1.32081941       0.00000000
Si      -1.37370313      -1.36381510      -1.33181846       0.00000000
Si       1.35412255       1.37448505      -1.34296339       0.00000000
Si       1.35931906      -1.32600601       1.39086906       0.00000000
Si      -0.01591533       2.66502773       2.71200940       0.00000000
Si       2.68284899      -2.69495246       0.01540450       0.00000000
Si      -0.01345554      -2.71505432      -2.68519739       0.00000000
Si      -2.71567334       0.02547756       2.69444593       0.00000000
Si       2.70101234       0.02782332      -2.71043394       0.00000000
Si      -2.73000855       2.69342120      -0.05665823       0.00000000
