10
Lattice="16.290000149 0.0 0.0 0.0 16.290000149 0.0 0.0 0.0 29.1751946751" Properties=species:S:1:pos:R:3:initial_magmoms:R:1 pbc="T T T"
Si      -1.38743560      -1.27524637      -1.37737553       0.00000000
Si       1.20317941      -1.39717702       1.44091910       0.00000000
Si      -1.41907078       1.38191329       1.28383985       0.00000000
Si       1.87427855       0.80233138      -1.19508920       0.00000000
Si       2.51853176      -2.72040396       0.04051851       0.00000000
Si       2.63195903       0.00706986       2.68255120       0.00000000
Si       2.68398929       2.66181860      -0.01454092       0.00000000
Si       3.50739993      -0.93291202      -1.11108477       0.00000000
Si      -0.09868482       2.72324819       2.67759142       0.00000000
Si      -2.72333779      -2.68136823      -0.02456551       0.00000000
