10
Lattice="16.290000149 0.0 0.0 0.0 16.290000149 0.0 0.0 0.0 29.1751946751" Properties=species:S:1:pos:R:3:initial_magmoms:R:1 pbc="T T T"
Si       1.34972425       1.39500017      -1.31055266       0.00000000
Si      -1.32383944       1.35193969       1.38424629       0.00000000
Si      -1.33745788      -1.32483313      -1.40414085       0.00000000
Si       1.38512242      -1.35676153       1.33884968       0.00000000
Si       2.67105503      -0.09397701      -2.51762966       0.00000000
Si       0.02112813      -2.71842635       2.66783815       0.00000000
Si       2.71068860       2.67759058       0.09881638       0.00000000
Si      -0.03336192       2.71913660      -2.67605097       0.00000000
Si      -2.71166600      -0.00744453       2.68782316       0.00000000
Si      -2.69465924       2.71225896       0.07098325       0.00000000
