10
Lattice="16.290000149 0.0 0.0 0.0 16.290000149 0.0 0.0 0.0 29.1751946751" Properties=species:S:1:pos:R:3:initial_magmoms:R:1 pbc="T T T"
Si       1.30487788      -1.37945350       1.37458930       0.00000000
Si      -1.37184607      -1.38486178      -1.30941191       0.00000000
Si      -1.32352993       1.36894645       1.37546455       0.00000000
Si       1.35431803       1.34739478      -1.37333476       0.00000000
Si      -2.68284899       2.69495246      -0.01540450       0.00000000
Si       2.68349571      -0.01959687       2.71128002       0.00000000
Si      -2.69630453      -0.02010186      -2.70060190       0.00000000
Si      -0.00084708      -2.72554997      -2.67367319       0.00000000
Si       2.69636807       2.70718625      -0.01829285       0.00000000
Si      -2.66297519       0.02008557       2.74830334       0.00000000
