10
Lattice="16.290000149 0.0 0.0 0.0 16.290000149 0.0 0.0 0.0 29.1751946751" Properties=species:S:1:pos:R:3:initial_magmoms:R:1 pbc="T T T"
Si      -1.34700382       1.34477209      -1.36440715       0.00000000
Si      -1.35470899      -1.37143882       1.34535575       0.00000000
Si       1.34299648      -1.30344436      -1.42342857       0.00000000
Si       1.35654976       1.34781832       1.36837498       0.00000000
Si      -2.76908826      -0.11526804      -2.58845828       0.00000000
Si       0.11293857       2.78149195      -2.57916598       0.00000000
Si      -2.70117524       2.67434561       0.03585631       0.00000000
Si       2.69061932      -2.68786631      -0.06068440       0.00000000
Si      -2.70892928      -0.01734885       2.70973373       0.00000000
Si       0.00636939      -2.71042796       2.71157177       0.00000000
