10
Lattice="16.290000149 0.0 0.0 0.0 16.290000149 0.0 0.0 0.0 29.1751946751" Properties=species:S:1:pos:R:3:initial_magmoms:R:1 pbc="T T T"
Si       1.34603750       1.21317023       1.48244124       0.00000000
Si       1.17083203      -1.59155892      -1.28615928       0.00000000
Si      -1.47800507      -1.30751018       1.37238073       0.00000000
Si      -0.28531642       1.82331382      -1.57190114       0.00000000
Si       2.48706242      -0.16533682      -2.63355730       0.00000000
Si       2.68193969       2.61929209       0.12963123       0.00000000
Si       0.64594053       1.00905979      -3.56751363       0.00000000
Si      -0.08594148       2.52031405       2.83446352       0.00000000
Si       2.52847160      -2.83345966       0.17055760       0.00000000
Si       2.62516904      -0.15994483       2.86940374       0.00000000
