10
Lattice="16.290000149 0.0 0.0 0.0 16.290000149 0.0 0.0 0.0 29.1751946751" Properties=species:S:1:pos:R:3:initial_magmoms:R:1 pbc="T T T"
Si      -1.33988509      -1.44855568       1.25336636       0.00000000
Si       1.34399017      -1.36497169      -1.35110327       0.00000000
Si      -1.38621385       1.34258923      -1.34853585       0.00000000
Si       1.25913556       1.36643779       1.45683417       0.00000000
Si      -2.70777269      -0.07977213       2.51061303       0.00000000
Si       2.63634104       2.69456150       0.06599429       0.00000000
Si      -0.02730204       2.70633917      -2.69088656       0.00000000
Si       2.69167917      -0.01117494      -2.70882930       0.00000000
Si       2.68672601      -2.72302013       0.01803027       0.00000000
Si      -0.02653641      -2.71288775      -2.70696209       0.00000000
