10
Lattice="16.290000149 0.0 0.0 0.0 16.290000149 0.0 0.0 0.0 29.1751946751" Properties=species:S:1:pos:R:3:initial_magmoms:R:1 pbc="T T T"
Si       1.36384768       1.34946361      -1.34996543       0.00000000
Si       1.37886706      -1.35272161       1.34022092       0.00000000
Si      -1.35228178       1.35965929       1.36449468       0.00000000
Si      -1.37077093      -1.36451557      -1.34868172       0.00000000
Si       0.00470781      -2.67543704       2.70337354       0.00000000
Si      -0.02709027       2.69743343      -2.68210482       0.00000000
Si       2.66861153      -2.72380205      -0.06946614       0.00000000
Si       2.72432333       2.69042059       0.03069230       0.00000000
Si       2.68224626      -0.02059056      -2.73412419       0.00000000
Si      -2.68823936       0.00518022       2.73879222       0.00000000
