10
Lattice="16.290000149 0.0 0.0 0.0 16.290000149 0.0 0.0 0.0 29.1751946751" Properties=species:S:1:pos:R:3:initial_magmoms:R:1 pbc="T T T"
Si      -1.40905243      -1.32390460       1.24791060       0.00000000
Si       1.36788760      -1.36878355      -1.25724666       0.00000000
Si       1.22331385       1.14401413       1.62281185       0.00000000
Si      -1.38930895       1.45433863      -1.19262361       0.00000000
Si      -0.36391860       1.06759774       3.42694754       0.00000000
Si       2.70777269       0.07977213      -2.51061303       0.00000000
Si      -2.49101795       0.09679518       2.74681540       0.00000000
Si      -0.05080851      -2.67884165      -2.57115156       0.00000000
Si       2.53495208       2.72981306       0.35474119       0.00000000
Si      -0.11461644      -2.61956234       2.67408164       0.00000000
