10
Lattice="16.290000149 0.0 0.0 0.0 16.290000149 0.0 0.0 0.0 29.1751946751" Properties=species:S:1:pos:R:3:initial_magmoms:R:1 pbc="T T T"
Si      -0.45501228      -1.28221849       0.66239362       0.00000000
H        0.52284384      -1.54357525      -1.80474837       0.00000000
Si       1.54885321      -0.43272756      -2.02046976       0.00000000
Si       2.71615390      -0.59368906      -0.00233402       0.00000000
Si      -1.26949600      -0.29313855       2.60283582       0.00000000
Si      -2.33489459      -1.98825968      -0.61119115       0.00000000
Si       1.55364247      -2.65139300       0.58505018       0.00000000
Si      -2.77506669       1.01654488       1.31101655       0.00000000
Si       0.23164380       1.17429724      -3.14234352       0.00000000
Si      -1.86289184       2.85599541       0.14625525       0.00000000
