10
Lattice="16.290000149 0.0 0.0 0.0 16.290000149 0.0 0.0 0.0 29.1751946751" Properties=species:S:1:pos:R:3:initial_magmoms:R:1 pbc="T T T"
Si       1.43661511       1.32708115       1.21549696       0.00000000
Si      -1.24194961       1.39046554      -1.37024219       0.00000000
Si       1.52265889      -1.31733322      -1.19492845       0.00000000
Si      -1.16160733      -1.43735794       1.50666540       0.00000000
H        2.08028189       0.48167901       2.29247010       0.00000000
Si       2.50248611      -2.17733771       0.79376952       0.00000000
Si       0.75613294      -2.49854067       2.28739361       0.00000000
Si       0.00291591       2.55164933       2.50148119       0.00000000
Si      -2.41559525      -2.75841831       0.03658569       0.00000000
Si      -2.53403984      -0.04632876      -2.68452636       0.00000000
