10
Lattice="16.28999089631971 0.0 0.0 0.0 16.28999089631971 0.0 0.0 0.0 34.642051614445585" Properties=species:S:1:pos:R:3:initial_magmoms:R:1 pbc="T T T"
Si       1.36865322      -1.27512565       1.28955109       0.00000000
Si      -1.33731126      -1.37108110      -1.32111002       0.00000000
Si       1.37790594       1.34065723      -1.32422781       0.00000000
Si      -1.25685495       1.36636285       1.41557895       0.00000000
Si      -0.26831259      -2.45434981       2.50160787       0.00000000
Si       2.27400255       0.44732992       2.75570746       0.00000000
Si       0.54990153       2.29997533       2.75376751       0.00000000
Si      -2.66752008       2.70351121       0.03526563       0.00000000
Si      -2.69187363      -0.01875305      -2.68049953       0.00000000
Si       0.02365308       2.69631103      -2.68046488       0.00000000
