10
Lattice="16.28999089631971 0.0 0.0 0.0 16.28999089631971 0.0 0.0 0.0 34.642051614445585" Properties=species:S:1:pos:R:3:initial_magmoms:R:1 pbc="T T T"
Si      -0.03401352       1.38311874       1.93756567       0.00000000
Si      -1.80675648      -0.93361248      -1.33818856       0.00000000
Si       0.96646941       1.79582589      -1.33867355       0.00000000
Si       1.72410102      -1.85264541       0.00193996       0.00000000
Si       2.20112109       0.38566575      -2.71846724       0.00000000
Si      -0.54990153      -2.29997533      -2.75376751       0.00000000
Si       2.86782192       2.32575588       0.05747120       0.00000000
Si      -1.28019852       3.32904069       1.25248408       0.00000000
Si       2.35955763       1.76956641       2.36525668       0.00000000
Si       3.57731658      -0.96932016      -1.26266884       0.00000000
