10
Lattice="16.28999089631971 0.0 0.0 0.0 16.28999089631971 0.0 0.0 0.0 34.642051614445585" Properties=species:S:1:pos:R:3:initial_magmoms:R:1 pbc="T T T"
Si      -0.10891494      -1.58890217      -1.75770404       0.00000000
Si      -0.72822816       2.25269523      -0.29023127       0.00000000
Si       2.03049963       0.08483832       1.25016306       0.00000000
Si      -1.57517784      -0.98367491       1.55882391       0.00000000
Si      -0.18200817      -2.69522027       2.39532600       0.00000000
Si       1.73309310       2.23021503       2.29867462       0.00000000
Si       1.46004012      -1.20953413       3.16677028       0.00000000
Si       0.38327112       2.77443135      -2.41742764       0.00000000
Si      -3.29629779      -0.88049894      -1.88411296       0.00000000
Si       2.06522991      -2.03425773      -2.61686204       0.00000000
