10
Lattice="16.28999089631971 0.0 0.0 0.0 16.28999089631971 0.0 0.0 0.0 34.642051614445585" Properties=species:S:1:pos:R:3:initial_magmoms:R:1 pbc="T T T"
Si       0.56459511       1.95328503      -1.18056714       0.00000000
Si       0.47695491      -0.03274290       2.35877861       0.00000000
Si      -2.02648903      -0.69861294      -1.13979342       0.00000000
Si       1.30403079      -2.08231323      -0.14473457       0.00000000
Si       1.78180020       0.43575750      -2.48601894       0.00000000
Si       3.19246533      -0.90139086      -1.10570562       0.00000000
Si      -0.96280742      -2.30455770      -2.48303972       0.00000000
Si      -1.75186733      -0.33769170       3.11962242       0.00000000
Si       1.28563938      -2.23958992       2.70336329       0.00000000
Si       1.48097277       3.49964586       0.45453861       0.00000000
