10
Lattice="16.28999089631971 0.0 0.0 0.0 16.28999089631971 0.0 0.0 0.0 34.642051614445585" Properties=species:S:1:pos:R:3:initial_magmoms:R:1 pbc="T T T"
Si      -2.18198034       0.09495441       0.88579775       0.00000000
Si       1.19860191       1.59829335       1.28577511       0.00000000
Si       0.70995078      -1.77616912       1.43383532       0.00000000
Si       0.17596458       0.79589682      -2.31648064       0.00000000
Si      -1.15253379      -2.81268746      -1.10144465       0.00000000
Si      -1.69266132      -2.07408257       1.84895125       0.00000000
Si       2.43253683       1.41335298      -1.95367423       0.00000000
Si       3.26344086       1.50915447       0.26518505       0.00000000
Si      -3.30120108       1.06210800      -1.03250693       0.00000000
Si      -1.66734666       2.26088910      -2.29780857       0.00000000
