10
Lattice="16.28999089631971 0.0 0.0 0.0 16.28999089631971 0.0 0.0 0.0 34.642051614445585" Properties=species:S:1:pos:R:3:initial_magmoms:R:1 pbc="T T T"
Si       2.06483895      -0.08913888      -1.02059005       0.00000000
Si      -1.19860191      -1.59829335      -1.28577511       0.00000000
Si      -0.44869176       2.24013564      -0.68920400       0.00000000
Si       1.06258041      -0.62144721       2.06792378       0.00000000
Si      -0.48865113      -3.37446247       0.14806021       0.00000000
Si       1.23393492      -0.18494037      -3.23944934       0.00000000
Si      -1.42138395       3.10852296       1.25328084       0.00000000
Si       1.09232595      -2.95598014       1.87022149       0.00000000
Si       3.05501031       2.01847761      -0.65858041       0.00000000
Si      -3.38058225      -1.50333894      -0.39997735       0.00000000
