10
Lattice="16.28999089631971 0.0 0.0 0.0 16.28999089631971 0.0 0.0 0.0 34.642051614445585" Properties=species:S:1:pos:R:3:initial_magmoms:R:1 pbc="T T T"
Si       1.39864311      -0.70982046      -1.76303892       0.00000000
Si       0.22270059       2.28433041      -0.69398461       0.00000000
Si       1.63963737      -0.49721967       1.73452849       0.00000000
Si      -2.31410853      -0.80356941      -0.15682466       0.00000000
Si      -3.33637119       0.34826391       1.68287717       0.00000000
Si      -2.15759421       2.42735661       2.04166509       0.00000000
Si       0.33606270      -0.08837325      -3.83096270       0.00000000
Si      -0.30033873       3.67420950       1.15202207       0.00000000
Si       1.42838865      -3.04435339      -1.96074122       0.00000000
Si       3.79097622      -0.02810025       1.05121364       0.00000000
