10
Lattice="16.28999089631971 0.0 0.0 0.0 16.28999089631971 0.0 0.0 0.0 34.642051614445585" Properties=species:S:1:pos:R:3:initial_magmoms:R:1 pbc="T T T"
Si      -1.33141428      -1.34799750       1.35717241       0.00000000
Si       1.35975888      -1.35519768      -1.35855810       0.00000000
Si      -1.35698958       1.35954711      -1.35876595       0.00000000
Si       1.35402480       1.38238569       1.39216091       0.00000000
Si      -2.54861937       0.16953003       2.66262422       0.00000000
Si       0.07925085      -2.68514586       2.73748573       0.00000000
Si       2.71401174      -2.71085148      -0.00232102       0.00000000
Si      -2.71052568       2.71492398      -0.00072748       0.00000000
Si      -2.71394658       0.00102627      -2.71534945       0.00000000
Si       0.00107514      -2.71381626      -2.71555730       0.00000000
