10
Lattice="16.28999089631971 0.0 0.0 0.0 16.28999089631971 0.0 0.0 0.0 34.642051614445585" Properties=species:S:1:pos:R:3:initial_magmoms:R:1 pbc="T T T"
Si       0.03401352      -1.38311874      -1.93756567       0.00000000
Si      -1.24618500       1.94592195      -0.68508160       0.00000000
Si      -1.11149928      -0.52173612       2.12719637       0.00000000
Si       2.39357115       0.38644767       0.42769101       0.00000000
Si       1.00048293       0.41270715      -3.27623922       0.00000000
Si       2.90183544       0.94263714      -1.88009448       0.00000000
Si      -1.45458297       3.09668013       1.36811931       0.00000000
Si      -0.38327112      -2.77443135       2.41742764       0.00000000
Si      -0.28313649       0.92900241       3.84118211       0.00000000
Si      -3.44505807      -0.08436591       2.00199992       0.00000000
