10
Lattice="16.28999089631971 0.0 0.0 0.0 16.28999089631971 0.0 0.0 0.0 34.642051614445585" Properties=species:S:1:pos:R:3:initial_magmoms:R:1 pbc="T T T"
Si       1.63295847      -1.47321873       0.87492014       0.00000000
Si       0.85708206       1.94004126      -1.05893883       0.00000000
Si      -0.82836279      -1.45073853      -1.71398575       0.00000000
Si      -1.37218815       1.21793814       1.62142213       0.00000000
Si      -1.17144648       2.16767772      -2.47306280       0.00000000
Si       1.74048876       3.00912138       0.90727584       0.00000000
Si       0.28921266       2.48135796       2.79409088       0.00000000
Si      -3.16192158      -1.01336832      -1.83918219       0.00000000
Si       0.64819539      -2.79010233       2.56157330       0.00000000
Si      -3.25073466       1.37640726      -1.65724203       0.00000000
