10
Lattice="16.28999089631971 0.0 0.0 0.0 16.28999089631971 0.0 0.0 0.0 34.642051614445585" Properties=species:S:1:pos:R:3:initial_magmoms:R:1 pbc="T T T"
Si      -0.85708206      -1.94004126       1.05893883       0.00000000
Si       0.88340670       1.06908012       1.96621466       0.00000000
Si       2.09391660      -0.34192710      -1.21257641       0.00000000
Si      -2.02852854       0.22763646      -1.41412398       0.00000000
Si      -2.22927021      -0.72210312       2.68036096       0.00000000
Si       2.96862444      -0.08544105       2.08812011       0.00000000
Si      -1.68544485      -3.39077979      -0.65504692       0.00000000
Si       1.81962558      -2.48259600      -2.35455228       0.00000000
Si      -0.56786940       0.54131670       3.85302970       0.00000000
Si       1.19830869       3.40218279       1.70265779       0.00000000
