10
Lattice="16.28999089631971 0.0 0.0 0.0 16.28999089631971 0.0 0.0 0.0 34.642051614445585" Properties=species:S:1:pos:R:3:initial_magmoms:R:1 pbc="T T T"
Si       0.52303932      -1.38987909      -1.84600668       0.00000000
Si      -1.85725548      -1.24685289       0.88964302       0.00000000
Si      -0.42039603       2.00624382      -1.29488597       0.00000000
Si       2.05048746       1.21230180       0.95955072       0.00000000
Si       1.20041010       3.27494160      -0.04846426       0.00000000
Si      -1.03136877      -1.15362522       3.15069532       0.00000000
Si       2.72557764      -0.42360516      -2.32791253       0.00000000
Si       0.30033873      -3.67420950      -1.15202207       0.00000000
Si      -0.78498252      -0.65405979      -3.72970393       0.00000000
Si       3.86563329       0.37400211      -0.41078568       0.00000000
