10
Lattice="16.28999089631971 0.0 0.0 0.0 16.28999089631971 0.0 0.0 0.0 34.642051614445585" Properties=species:S:1:pos:R:3:initial_magmoms:R:1 pbc="T T T"
Si      -1.40680440       1.36065483       1.24617922       0.00000000
Si       1.32696711       1.36554183      -1.37421631       0.00000000
Si      -1.38583917      -1.34952876      -1.36985141       0.00000000
Si       1.43640333      -1.28539503       1.61979395       0.00000000
Si      -2.37952917      -0.22296123       2.63030316       0.00000000
Si      -0.67675176      -1.89653067       2.93137740       0.00000000
Si       2.68934868      -2.71982727       0.03062359       0.00000000
Si       2.68558569       0.01107720      -2.73170051       0.00000000
Si       2.68625358       2.73160494      -0.01063512       0.00000000
Si      -0.02976183      -2.70482418      -2.73201229       0.00000000
