10
Lattice="16.28999089631971 0.0 0.0 0.0 16.28999089631971 0.0 0.0 0.0 34.642051614445585" Properties=species:S:1:pos:R:3:initial_magmoms:R:1 pbc="T T T"
Si      -1.21430547      -1.66363254      -1.23396931       0.00000000
Si      -1.38613239       1.28647920       1.48557671       0.00000000
Si       1.32032079      -1.42591257       1.49673146       0.00000000
Si       1.72196703       0.72847251      -1.59064408       0.00000000
Si       2.60003061       2.50802699      -0.05171715       0.00000000
Si       0.68323518      -3.44813688      -1.06911459       0.00000000
Si       2.66339871      -2.67763617       0.00380024       0.00000000
Si      -2.73906902       2.74695079       0.09491927       0.00000000
Si      -0.02976183       2.62926206       2.86711290       0.00000000
Si      -2.25562743      -0.68667237      -3.13103841       0.00000000
