10
Lattice="16.28999089631971 0.0 0.0 0.0 16.28999089631971 0.0 0.0 0.0 34.642051614445585" Properties=species:S:1:pos:R:3:initial_magmoms:R:1 pbc="T T T"
Si       0.22799484       2.28050226       0.49631695       0.00000000
Si      -2.34398439      -0.19129347      -0.25125894       0.00000000
Si       1.03136877       0.07693767      -2.16821258       0.00000000
Si       0.72725076      -1.68021576       1.56422807       0.00000000
Si       3.13310457      -0.89510292      -1.64923971       0.00000000
Si      -2.53949697      -1.51488855      -2.14340886       0.00000000
Si      -0.85911831      -0.57500442      -3.52330647       0.00000000
Si      -1.85916141       3.03652116       1.12084421       0.00000000
Si      -3.03709131       2.07612792      -0.67046264       0.00000000
Si       2.73957075      -0.84217671       2.45542999       0.00000000
