10
Lattice="16.28999089631971 0.0 0.0 0.0 16.28999089631971 0.0 0.0 0.0 34.642051614445585" Properties=species:S:1:pos:R:3:initial_magmoms:R:1 pbc="T T T"
Si       1.25924958      -1.37429771      -1.40591381       0.00000000
Si       1.36467846       1.32372540       1.36473824       0.00000000
Si      -1.35213516      -1.39059096       1.36217473       0.00000000
Si      -1.41571503       1.34995230      -1.44281801       0.00000000
Si      -0.60170373      -1.92455761      -2.94953127       0.00000000
Si       2.70133812       2.69309538      -0.01024366       0.00000000
Si       0.00856854       2.68211592       2.72156424       0.00000000
Si      -2.73171897       2.67677280      -0.00655428       0.00000000
Si      -2.70744687      -0.03292209       2.72253421       0.00000000
Si       2.72350881      -0.03365514       2.72215315       0.00000000
