10
Lattice="16.28999089631971 0.0 0.0 0.0 16.28999089631971 0.0 0.0 0.0 34.642051614445585" Properties=species:S:1:pos:R:3:initial_magmoms:R:1 pbc="T T T"
Si       1.66899195      -0.35630695       1.54583313       0.00000000
Si       0.07615575       1.57292493      -1.73619131       0.00000000
Si      -2.17414485       0.44535557       0.85915800       0.00000000
Si      -0.92621682      -2.21110264      -0.45980421       0.00000000
Si      -0.82919358      -0.14953063      -3.20234768       0.00000000
Si      -2.49816924      -1.89124849       1.38020939       0.00000000
Si      -2.46615939      -1.32875479      -1.99029090       0.00000000
Si       3.55768713      -1.18362718       0.49157099       0.00000000
Si       2.01005568       1.53852045       2.84116945       0.00000000
Si      -2.06522991       2.03425773       2.61686204       0.00000000
