10
Lattice="16.28999089631971 0.0 0.0 0.0 16.28999089631971 0.0 0.0 0.0 34.642051614445585" Properties=species:S:1:pos:R:3:initial_magmoms:R:1 pbc="T T T"
Si      -1.02226266       1.15183332       1.83970182       0.00000000
Si      -0.60432642      -2.24031483       0.68158275       0.00000000
Si      -1.10837160       0.52971822      -2.09989842       0.00000000
Si       2.31410853       0.80356941       0.15682466       0.00000000
Si      -0.96826131       2.89307142      -2.31561459       0.00000000
Si      -3.10222687       2.14408980       0.82988545       0.00000000
Si      -1.57881051      -3.33978299      -1.20197594       0.00000000
Si       0.15651432       3.23092602       2.19848975       0.00000000
Si       1.35120663      -3.41621567       1.55068302       0.00000000
Si      -3.46127151      -0.06643062      -2.06355888       0.00000000
