10
Lattice="16.28999089631971 0.0 0.0 0.0 16.28999089631971 0.0 0.0 0.0 34.642051614445585" Properties=species:S:1:pos:R:3:initial_magmoms:R:1 pbc="T T T"
Si      -0.07615575      -1.57292493       1.73619131       0.00000000
Si       1.85321556       0.88332525      -1.26460880       0.00000000
Si      -0.90534933      -1.72245557      -1.46615637       0.00000000
Si      -1.72410102       1.85264541      -0.00193996       0.00000000
Si       0.47702007       2.23831116      -2.72040719       0.00000000
Si      -2.27400255      -0.44732992      -2.75570746       0.00000000
Si      -2.25030060      -1.12756936       2.59534932       0.00000000
Si      -2.54231514      -2.90167973      -0.25409959       0.00000000
Si      -3.53085750       0.91903293      -1.34012852       0.00000000
Si      -0.75763161       3.64847130      -1.34061350       0.00000000
