10
Lattice="16.28999089631971 0.0 0.0 0.0 16.28999089631971 0.0 0.0 0.0 34.642051614445585" Properties=species:S:1:pos:R:3:initial_magmoms:R:1 pbc="T T T"
Si       2.04478596      -0.58057560      -1.02585565       0.00000000
Si      -0.57045951      -1.29437245       1.91660722       0.00000000
Si      -2.03049963      -0.08483832      -1.25016306       0.00000000
Si      -0.29740653       2.14537671       1.04851156       0.00000000
Si      -1.28216961       0.82849311       2.73516471       0.00000000
Si       2.51445924       1.54478070      -1.97698835       0.00000000
Si      -2.21250780      -2.78005859       1.14516294       0.00000000
Si      -3.60567747      -1.06851323       0.30866085       0.00000000
Si       1.70372223      -2.47540301      -2.32119197       0.00000000
Si      -2.75872779       2.16785691      -1.54039433       0.00000000
