10
Lattice="16.28999089631971 0.0 0.0 0.0 16.28999089631971 0.0 0.0 0.0 34.642051614445585" Properties=species:S:1:pos:R:3:initial_magmoms:R:1 pbc="T T T"
Si      -2.06483895       0.08913888       1.02059005       0.00000000
Si       0.99017136       2.10761649       0.36200964       0.00000000
Si      -0.83090403      -0.09580149      -2.21885929       0.00000000
Si       1.61512092      -1.73242684       0.32930753       0.00000000
Si      -1.00225854      -0.53230833       3.08851384       0.00000000
Si      -2.51353071       2.32927452       0.33138605       0.00000000
Si       3.38504571      -0.33971166      -0.54789899       0.00000000
Si       2.71238274       1.84223610      -1.11831534       0.00000000
Si      -3.26344086      -1.50915447      -0.26518505       0.00000000
Si       0.79790049      -3.36205142      -1.18818839       0.00000000
