10
Lattice="16.28999089631971 0.0 0.0 0.0 16.28999089631971 0.0 0.0 0.0 34.642051614445585" Properties=species:S:1:pos:R:3:initial_magmoms:R:1 pbc="T T T"
Si      -0.15537044      -2.36004144       0.08068138       0.00000000
Si      -1.21987895       0.42362145      -1.98405533       0.00000000
Si      -1.19972822       0.81166554       1.88037161       0.00000000
Si       2.35289991       0.59614884      -0.03633953       0.00000000
Si       2.73086049      -0.72171216      -2.01055652       0.00000000
Si      -1.75669961      -2.59817287       1.83634154       0.00000000
Si       0.35904463       2.21052042       2.89344434       0.00000000
Si      -1.27010102      -1.00969981       3.42055809       0.00000000
Si      -3.35766452       1.11576726      -1.41495539       0.00000000
Si      -0.00206394       1.88568153      -3.34670119       0.00000000
