10
Lattice="16.28999089631971 0.0 0.0 0.0 16.28999089631971 0.0 0.0 0.0 34.642051614445585" Properties=species:S:1:pos:R:3:initial_magmoms:R:1 pbc="T T T"
Si      -1.21679784       1.36677987       1.45064365       0.00000000
Si       1.16740656       1.59171219      -1.38662999       0.00000000
Si       1.48063068      -1.34319195       1.42326949       0.00000000
Si      -1.97951193      -0.79967610      -1.28433196       0.00000000
Si      -2.45097711       2.76602571       0.01901850       0.00000000
Si      -2.63642247      -2.68633503      -0.00930486       0.00000000
Si      -0.52608555       3.48122187      -1.41503649       0.00000000
Si      -2.56927509       0.00568521       2.79554931       0.00000000
Si       0.14397102      -2.71256193       2.79825139       0.00000000
Si       0.14680548       2.71733490       2.80050312       0.00000000
