10
Lattice="16.28999089631971 0.0 0.0 0.0 16.28999089631971 0.0 0.0 0.0 34.642051614445585" Properties=species:S:1:pos:R:3:initial_magmoms:R:1 pbc="T T T"
Si      -1.23465168       1.41016014       1.37979369       0.00000000
Si       1.34183988       1.36363590      -1.35592530       0.00000000
Si      -1.37311668      -1.34498385      -1.35952808       0.00000000
Si       1.37619549      -1.35498591       1.45579839       0.00000000
Si       0.66670083       1.94009013       2.77593843       0.00000000
Si      -2.20112109      -0.38566575       2.71846724       0.00000000
Si      -0.47702007      -2.23831116       2.72040719       0.00000000
Si       2.54013228       0.35996013       2.64630780       0.00000000
Si       2.70107748      -2.71126362       0.01441110       0.00000000
Si       2.70190827       0.01228266      -2.71531481       0.00000000
