10
Lattice="16.28999089631971 0.0 0.0 0.0 16.28999089631971 0.0 0.0 0.0 34.642051614445585" Properties=species:S:1:pos:R:3:initial_magmoms:R:1 pbc="T T T"
Si       1.76062320      -1.11806415      -1.05807277       0.00000000
Si      -0.44005806       1.54715904      -1.72205735       0.00000000
Si       1.14005565       0.79760727       1.91712685       0.00000000
Si      -2.20253832      -0.96627393       0.48190585       0.00000000
Si       1.31896872      -3.26578662      -0.19946904       0.00000000
Si      -2.67817374       2.02890321      -1.23218382       0.00000000
Si      -2.72557764       0.42360516       2.32791253       0.00000000
Si       0.96583410      -1.32049998      -3.31365266       0.00000000
Si      -0.67509018       1.63590696       3.28746325       0.00000000
Si      -3.51056016      -0.23045463      -1.40179140       0.00000000
