10
Lattice="16.28999089631971 0.0 0.0 0.0 16.28999089631971 0.0 0.0 0.0 34.642051614445585" Properties=species:S:1:pos:R:3:initial_magmoms:R:1 pbc="T T T"
Si      -1.14005565      -0.79760727      -1.91712685       0.00000000
Si       1.60772526       1.76407668      -0.40326835       0.00000000
Si      -1.81514583       0.83829969       1.37033640       0.00000000
Si       0.80337393      -1.94470020       1.25930856       0.00000000
Si       0.62056755      -1.91567142      -2.97519962       0.00000000
Si       3.61773207       0.65498832      -0.92587863       0.00000000
Si      -1.20914154       0.28808865       3.62985478       0.00000000
Si       2.90734146      -1.23056289      -2.25772769       0.00000000
Si       0.63798156       3.28921164      -1.97241560       0.00000000
Si       0.45092349      -1.53613071       3.54478455       0.00000000
