10
Lattice="16.28999089631971 0.0 0.0 0.0 16.28999089631971 0.0 0.0 0.0 34.642051614445585" Properties=species:S:1:pos:R:3:initial_magmoms:R:1 pbc="T T T"
Si       1.35749457       1.35744570       1.35651422       0.00000000
Si      -1.35785295      -1.35845568       1.35620244       0.00000000
Si      -1.35741312       1.35772263      -1.35779597       0.00000000
Si       1.35842310      -1.35842310      -1.35741491       0.00000000
Si      -0.00112401       2.71191033       2.71399841       0.00000000
Si      -2.71414206      -0.00047241      -2.71444876       0.00000000
Si      -2.71476108       2.71419093      -0.00062356       0.00000000
Si       2.71534752       2.71422351      -0.00003464       0.00000000
Si       0.00070047      -2.71515204      -2.71448340       0.00000000
Si      -0.00055386       2.71523349      -2.71479518       0.00000000
