10
Lattice="16.28999089631971 0.0 0.0 0.0 16.28999089631971 0.0 0.0 0.0 34.642051614445585" Properties=species:S:1:pos:R:3:initial_magmoms:R:1 pbc="T T T"
Si       1.02226266      -1.15183332      -1.83970182       0.00000000
Si       1.17877698       2.07909270       0.35878793       0.00000000
Si      -2.07996421       0.99225648      -1.00981637       0.00000000
Si      -0.48576780      -0.54030672       2.46364016       0.00000000
Si       0.41793624      -3.39214815      -1.15811907       0.00000000
Si      -1.07082315       2.67455736      -2.30265846       0.00000000
Si      -2.27774925       1.17475335       2.73467284       0.00000000
Si       3.33637119      -0.34826391      -1.68287717       0.00000000
Si      -2.77618157       2.42983269       0.71923868       0.00000000
Si      -1.66315036      -3.36907174       0.57547408       0.00000000
