10
Lattice="16.28999089631971 0.0 0.0 0.0 16.28999089631971 0.0 0.0 0.0 34.642051614445585" Properties=species:S:1:pos:R:3:initial_magmoms:R:1 pbc="T T T"
Si       0.96539427       2.15013339      -0.03346424       0.00000000
Si      -2.12771835       0.77779863       0.67631715       0.00000000
Si      -0.52128000      -0.94827348      -2.12099544       0.00000000
Si       0.96974370      -1.52513496       1.56914725       0.00000000
Si       1.24579404       0.35961804       3.14449542       0.00000000
Si      -2.21809527      -2.53965987      -1.66676860       0.00000000
Si       0.03746700       3.30893883      -1.85740392       0.00000000
Si      -0.63798156      -3.28921164       1.97241560       0.00000000
Si       1.41156108      -1.68713901      -3.30509607       0.00000000
Si       0.44435862       3.56311170       1.77242692       0.00000000
