10
Lattice="16.28999089631971 0.0 0.0 0.0 16.28999089631971 0.0 0.0 0.0 34.642051614445585" Properties=species:S:1:pos:R:3:initial_magmoms:R:1 pbc="T T T"
Si      -1.69681527      -1.59138639       0.45422683       0.00000000
Si       0.52128000       0.94827348       2.12099544       0.00000000
Si       1.93284108      -0.73886553      -1.18410063       0.00000000
Si      -1.09833696       1.52278920      -1.53142203       0.00000000
Si      -1.60643835       1.72607211       2.79731259       0.00000000
Si       1.91756106       0.69613686      -3.09374479       0.00000000
Si      -1.91954844      -2.81439072      -1.56862762       0.00000000
Si      -1.52498835       3.49171263      -0.34801425       0.00000000
Si      -3.11065695       0.68475015      -2.42262395       0.00000000
Si      -1.25675721      -3.13854543       2.17628418       0.00000000
