10
Lattice="16.28999089631971 0.0 0.0 0.0 16.28999089631971 0.0 0.0 0.0 34.642051614445585" Properties=species:S:1:pos:R:3:initial_magmoms:R:1 pbc="T T T"
Si       1.35685926       1.35127179      -1.36184909       0.00000000
Si      -1.36855548       1.45369437       1.24874273       0.00000000
Si      -1.35928647      -1.36606311      -1.36358120       0.00000000
Si       1.30986261      -1.30041441       1.48226493       0.00000000
Si      -2.68625358      -2.73160494       0.01063512       0.00000000
Si       2.71489140       2.70319748       0.00890301       0.00000000
Si       2.70651834      -2.72121192       0.02324483       0.00000000
Si      -0.00130320       2.70946261      -2.72009541       0.00000000
Si       2.71466334      -0.00604359      -2.72030327       0.00000000
Si      -2.71469592      -0.00601101      -2.72099611       0.00000000
