10
Lattice="16.28999089631971 0.0 0.0 0.0 16.28999089631971 0.0 0.0 0.0 34.642051614445585" Properties=species:S:1:pos:R:3:initial_magmoms:R:1 pbc="T T T"
Si       1.56849894       1.23577569       1.18434312       0.00000000
Si      -1.30986261       1.30041441      -1.48226493       0.00000000
Si       1.39665573      -1.42079751      -1.45902010       0.00000000
Si      -1.45119465      -1.16892153       1.64809653       0.00000000
Si       1.94711112      -0.61514298       2.72123860       0.00000000
Si      -2.55971286      -2.71658556       0.14816414       0.00000000
Si      -2.77544133       0.69253677       2.50902127       0.00000000
Si      -2.67841809       2.75410878      -0.23352220       0.00000000
Si       0.04699665       2.65168620      -2.84411403       0.00000000
Si      -2.66914908      -0.06564870      -2.84584613       0.00000000
