10
Lattice="16.28999089631971 0.0 0.0 0.0 16.28999089631971 0.0 0.0 0.0 34.642051614445585" Properties=species:S:1:pos:R:3:initial_magmoms:R:1 pbc="T T T"
Si      -0.94946265      -0.64223325       2.05663047       0.00000000
Si       0.83471589       2.16616179      -0.42398431       0.00000000
Si       1.93365558      -1.37728692      -0.13496551       0.00000000
Si      -1.53513702      -0.50828058      -1.77887034       0.00000000
Si      -1.03705398      -2.82036915      -1.95003682       0.00000000
Si       2.96370486       1.76287678      -1.43861592       0.00000000
Si      -2.35015830       1.18423413       2.65746255       0.00000000
Si       1.35907470      -3.02795262      -1.72933218       0.00000000
Si      -0.99307098       1.14658794      -3.42956503       0.00000000
Si      -0.65200725       3.04141535      -2.13422871       0.00000000
