10
Lattice="16.28999089631971 0.0 0.0 0.0 16.28999089631971 0.0 0.0 0.0 34.642051614445585" Properties=species:S:1:pos:R:3:initial_magmoms:R:1 pbc="T T T"
Si      -1.35596331      -1.36075257      -1.32537792       0.00000000
Si      -1.35553977       1.35601218       1.35963200       0.00000000
Si       1.35977517      -1.35839052       1.35921630       0.00000000
Si       1.36348929       1.38072411      -1.36577404       0.00000000
Si      -2.71412251      -0.06170652      -2.64978240       0.00000000
Si       2.58273063      -0.04805550      -2.79963361       0.00000000
Si      -2.71175720       2.71560816       0.00027714       0.00000000
Si      -2.71126036      -2.71642266       0.00734412       0.00000000
Si      -2.71206671      -0.00003258       2.71704691       0.00000000
Si       2.71857294       2.71116099      -0.00124711       0.00000000
