10
Lattice="16.28999089631971 0.0 0.0 0.0 16.28999089631971 0.0 0.0 0.0 34.642051614445585" Properties=species:S:1:pos:R:3:initial_magmoms:R:1 pbc="T T T"
Si       2.08373535       0.76549968       0.61160576       0.00000000
Si      -0.80075124       1.73780091      -1.32776130       0.00000000
Si       0.42665139      -1.96892343      -1.18340779       0.00000000
Si      -1.30321629      -0.12971727       1.94671118       0.00000000
Si      -0.08145000      -1.76564052       3.14532683       0.00000000
Si       1.55255103       3.05883815       1.13813060       0.00000000
Si      -3.40581546      -0.82453464       0.99814199       0.00000000
Si      -2.30959620       2.94629277       0.01728639       0.00000000
Si       1.63812240      -1.28006820      -3.14608896       0.00000000
Si       1.52498835      -3.49171263       0.34801425       0.00000000
