10
Lattice="16.28999089631971 0.0 0.0 0.0 16.28999089631971 0.0 0.0 0.0 34.642051614445585" Properties=species:S:1:pos:R:3:initial_magmoms:R:1 pbc="T T T"
Si       0.89316767       1.73009574       1.29919337       0.00000000
Si      -1.78951256      -0.92297511       1.26845892       0.00000000
Si      -0.49843232       1.25507934      -2.01543416       0.00000000
Si       1.79198145      -1.71506007      -0.27103267       0.00000000
Si       2.25132687       0.43104969       2.62359785       0.00000000
Si      -0.45954874      -2.27659266       2.61248467       0.00000000
Si       1.50918705       2.60727966      -2.04124250       0.00000000
Si       2.27774925      -1.17475335      -2.73467284       0.00000000
Si       0.19778504      -0.18249687      -3.74448921       0.00000000
Si       3.51635940      -0.81608013       1.13198302       0.00000000
