10
Lattice="16.28999089631971 0.0 0.0 0.0 16.28999089631971 0.0 0.0 0.0 34.642051614445585" Properties=species:S:1:pos:R:3:initial_magmoms:R:1 pbc="T T T"
Si      -2.13778557       0.69214581       0.56909994       0.00000000
Si       1.21781501       1.46206008      -1.36264586       0.00000000
Si      -0.35091918      -1.76057922      -1.51805019       0.00000000
Si       1.21987895      -0.42362145       1.98405533       0.00000000
Si       2.83151870      -0.17818002      -1.94480586       0.00000000
Si      -1.64146185       3.02379867       0.72491998       0.00000000
Si      -0.01713708      -3.57118244      -0.00027714       0.00000000
Si       1.06450851      -2.78366289       2.06473671       0.00000000
Si      -3.50878455      -0.07084521      -1.19501288       0.00000000
Si      -2.16759627      -0.92237238      -2.93248595       0.00000000
