10
Lattice="16.28999089631971 0.0 0.0 0.0 16.28999089631971 0.0 0.0 0.0 34.642051614445585" Properties=species:S:1:pos:R:3:initial_magmoms:R:1 pbc="T T T"
Si       1.35239194      -1.35894438       1.35720706       0.00000000
Si       1.35641652       1.35697329      -1.35675671       0.00000000
Si      -1.35801585       1.35567009       1.35835024       0.00000000
Si      -1.35801585      -1.35832536      -1.35699920       0.00000000
Si      -2.71487511      -2.71296918       0.00024249       0.00000000
Si       2.71423721      -0.00079821      -2.71372127       0.00000000
Si      -0.00110772       2.71450044      -2.71403305       0.00000000
Si       2.71444572       2.71430496       0.00072748       0.00000000
Si       2.71392444      -2.71557558       0.00159354       0.00000000
Si      -2.71489140       2.71523349      -0.00003464       0.00000000
