10
Lattice="16.28999089631971 0.0 0.0 0.0 16.28999089631971 0.0 0.0 0.0 34.642051614445585" Properties=species:S:1:pos:R:3:initial_magmoms:R:1 pbc="T T T"
Si      -0.77084280       1.96444368       1.09901970       0.00000000
Si      -1.39650912      -1.89524376      -0.34721748       0.00000000
Si       1.92370306      -0.30879324       1.40820019       0.00000000
Si      -0.40135302       1.53593523      -1.88220764       0.00000000
Si      -1.30266243      -2.27830311       2.13412478       0.00000000
Si      -2.51017497       2.57062716      -0.42398431       0.00000000
Si      -1.82299761       0.26414235      -3.16271715       0.00000000
Si       3.80950514       0.17767503       0.07191694       0.00000000
Si      -3.37789440      -0.79895934      -1.69337371       0.00000000
Si       3.19975415      -1.41323895      -1.68422821       0.00000000
