10
Lattice="16.28999089631971 0.0 0.0 0.0 16.28999089631971 0.0 0.0 0.0 34.642051614445585" Properties=species:S:1:pos:R:3:initial_magmoms:R:1 pbc="T T T"
Si       0.65265885      -1.78189794       1.33070587       0.00000000
Si       1.52190954       0.69405174      -1.60455144       0.00000000
Si      -1.48983453      -1.44159984      -1.05069401       0.00000000
Si      -1.17265194       1.95670593       0.66124785       0.00000000
Si      -1.47455451      -2.87660223       0.85895015       0.00000000
Si      -3.29426154       0.07390773      -1.45105243       0.00000000
Si       1.61422497      -0.72298278       3.21003822       0.00000000
Si       2.99843514       2.09396547      -0.31603961       0.00000000
Si      -2.48989392       2.39707350      -1.24534781       0.00000000
Si       0.20328291       3.09050622       2.19589159       0.00000000
