10
Lattice="16.28999089631971 0.0 0.0 0.0 16.28999089631971 0.0 0.0 0.0 34.642051614445585" Properties=species:S:1:pos:R:3:initial_magmoms:R:1 pbc="T T T"
Si       1.13593332      -1.32274800       1.51673379       0.00000000
Si      -1.79300772      -0.97806789      -1.22591361       0.00000000
Si       1.71436516       0.45191718      -1.64366234       0.00000000
Si      -1.02389166       1.71343107       1.43684918       0.00000000
Si      -2.15257689       2.68139916      -0.39554317       0.00000000
Si      -2.72715777       1.03073346      -1.98990984       0.00000000
Si      -2.99436264      -1.94890302       0.52943477       0.00000000
Si       2.75599826       0.06607224       2.46474871       0.00000000
Si       1.38823284       2.78881542      -2.25017572       0.00000000
Si      -0.34339320      -2.13245874       3.20168948       0.00000000
