10
Lattice="16.28999089631971 0.0 0.0 0.0 16.28999089631971 0.0 0.0 0.0 34.642051614445585" Properties=species:S:1:pos:R:3:initial_magmoms:R:1 pbc="T T T"
Si      -0.30737601       1.60956603      -1.71343147       0.00000000
Si      -1.82796606      -1.49113773       0.28711348       0.00000000
Si       1.57989772      -1.41276654      -1.09735688       0.00000000
Si       1.07761608       1.19255832       2.13208090       0.00000000
Si       1.96628349       2.18903391      -2.12667674       0.00000000
Si       3.17020409       0.11473047      -1.91241553       0.00000000
Si      -1.13222016      -2.52224586       2.51026839       0.00000000
Si       3.19589342       0.15895782       2.10540651       0.00000000
Si      -1.26894213       0.55065087      -3.59276382       0.00000000
Si      -3.83797287      -0.38204937       0.80972377       0.00000000
