10
Lattice="16.28999089631971 0.0 0.0 0.0 16.28999089631971 0.0 0.0 0.0 34.642051614445585" Properties=species:S:1:pos:R:3:initial_magmoms:R:1 pbc="T T T"
Si      -1.35652694      -1.35604476       1.35741491       0.00000000
Si       1.35553977      -1.35601218      -1.35963200       0.00000000
Si       1.35816246       1.35897696       1.35679135       0.00000000
Si      -1.35621743       1.35959598      -1.35935487       0.00000000
Si      -0.00042354      -2.71676475      -2.68500992       0.00000000
Si      -2.71153411      -2.71451673      -0.00031178       0.00000000
Si       0.00136836      -2.71360449       2.71413698       0.00000000
Si      -2.71434764       0.00172674       2.71437947       0.00000000
Si       2.71518462       0.00192222       2.71441411       0.00000000
Si       2.71531494      -2.71440270      -0.00041570       0.00000000
