10
Lattice="16.28999089631971 0.0 0.0 0.0 16.28999089631971 0.0 0.0 0.0 34.642051614445585" Properties=species:S:1:pos:R:3:initial_magmoms:R:1 pbc="T T T"
Si      -1.35731538      -1.49309253       1.28071736       0.00000000
Si       1.41359963      -1.26975663      -1.45441271       0.00000000
Si       1.28425866       0.84261654       1.85622609       0.00000000
Si      -1.29015171       1.45238382      -1.45711479       0.00000000
Si       2.49946334       2.53467513      -0.04025409       0.00000000
Si       0.06223383      -2.62055601      -2.82360592       0.00000000
Si      -2.56759722       2.88744113      -0.06401855       0.00000000
Si      -2.65087170       0.09260865      -2.82450661       0.00000000
Si       2.73894263      -2.74124862      -0.11903016       0.00000000
Si      -2.77895997      -2.76488541       0.00020785       0.00000000
