10
Lattice="16.28999089631971 0.0 0.0 0.0 16.28999089631971 0.0 0.0 0.0 34.642051614445585" Properties=species:S:1:pos:R:3:initial_magmoms:R:1 pbc="T T T"
Si       0.83737116       0.86801265       2.02850111       0.00000000
Si      -2.32020099      -0.28385325       0.38338380       0.00000000
Si       1.21474530      -1.96750620      -0.53715995       0.00000000
Si      -0.19619676       1.84598280      -1.55130658       0.00000000
Si      -1.57213161       0.71218251      -3.08595032       0.00000000
Si       1.26903987       3.05040811       1.26398524       0.00000000
Si      -0.68898555       3.55611093       0.07756360       0.00000000
Si      -0.83230497       0.02396259       3.53307553       0.00000000
Si      -3.24812826       0.87495219      -1.44055588       0.00000000
Si      -2.84123664       1.12912506       2.18927496       0.00000000
