10
Lattice="16.28999089631971 0.0 0.0 0.0 16.28999089631971 0.0 0.0 0.0 34.642051614445585" Properties=species:S:1:pos:R:3:initial_magmoms:R:1 pbc="T T T"
Si       1.53702992      -1.20327714       1.29041714       0.00000000
Si       1.37512361       1.34211681      -1.37293456       0.00000000
Si      -1.34803787      -1.37236734      -1.37335026       0.00000000
Si      -1.09642777       1.35723393       1.70369705       0.00000000
Si       0.83587574       2.23743150       2.93376771       0.00000000
Si      -2.69355543       2.68811064       0.02324483       0.00000000
Si      -2.68645299      -2.71480995       0.00387991       0.00000000
Si       2.45340758       0.34308369       2.92552289       0.00000000
Si       0.01401592       2.70088200      -2.72982983       0.00000000
Si      -2.70042981      -0.01342296      -2.73055732       0.00000000
