10
Lattice="16.28999089631971 0.0 0.0 0.0 16.28999089631971 0.0 0.0 0.0 34.642051614445585" Properties=species:S:1:pos:R:3:initial_magmoms:R:1 pbc="T T T"
Si      -1.03883448      -1.91614383      -0.87408873       0.00000000
Si       1.07152362      -0.46701801       2.10603006       0.00000000
Si       1.36129014       0.46217988      -1.95059109       0.00000000
Si      -1.77004534       1.62487863       0.50473497       0.00000000
Si       1.27247706       2.85195546      -1.76865093       0.00000000
Si      -2.95589285      -2.27038617       0.35657084       0.00000000
Si      -1.91072740      -1.20648627      -3.00301721       0.00000000
Si      -0.56233080      -1.66579911       3.37133171       0.00000000
Si      -0.64156536       3.36263067       1.69988642       0.00000000
Si       0.71588034      -3.59316512      -1.09254163       0.00000000
