10
Lattice="16.28999089631971 0.0 0.0 0.0 16.28999089631971 0.0 0.0 0.0 34.642051614445585" Properties=species:S:1:pos:R:3:initial_magmoms:R:1 pbc="T T T"
Si      -1.35541108       1.35518139      -1.35249573       0.00000000
Si      -1.35636079      -1.35798490       1.35696456       0.00000000
Si       1.35814617       1.35674523       1.35689528       0.00000000
Si       1.35778779      -1.35677781      -1.36126018       0.00000000
Si      -0.00011403       2.71085148      -2.68521778       0.00000000
Si      -2.71098964       0.00320913      -2.69633095       0.00000000
Si      -2.71122460       2.71309950      -0.00051963       0.00000000
Si       0.00167787       2.71401174       2.71392912       0.00000000
Si      -2.71429267      -0.00073305       2.71379056       0.00000000
Si      -2.71344185      -2.71503336      -0.00010393       0.00000000
