10
Lattice="16.28999089631971 0.0 0.0 0.0 16.28999089631971 0.0 0.0 0.0 34.642051614445585" Properties=species:S:1:pos:R:3:initial_magmoms:R:1 pbc="T T T"
Si       1.35353610      -1.35537687      -1.35803847       0.00000000
Si       1.36192545       1.35257499       1.35835024       0.00000000
Si      -1.36110769       1.35876519      -1.35689528       0.00000000
Si      -1.37512361      -1.34211681       1.37293456       0.00000000
Si       0.16190631      -2.54539395       2.66335170       0.00000000
Si      -0.04409703       2.59633278       2.70897531       0.00000000
Si       2.71039536       0.00162900      -2.71434483       0.00000000
Si       2.71174743       2.71360449       0.00422633       0.00000000
Si       2.71052568      -2.71492398       0.00072748       0.00000000
Si      -0.00342090      -2.71389771      -2.71462197       0.00000000
