10
Lattice="16.28999089631971 0.0 0.0 0.0 16.28999089631971 0.0 0.0 0.0 34.642051614445585" Properties=species:S:1:pos:R:3:initial_magmoms:R:1 pbc="T T T"
Si       0.67701077      -2.24761275      -0.07506937       0.00000000
Si       1.88580208       0.48646827      -1.33628325       0.00000000
Si       0.23244690       1.28853900       2.00771587       0.00000000
Si      -1.92370306       0.30879324      -1.40820019       0.00000000
Si       1.27605109      -1.10444571      -3.09242839       0.00000000
Si      -2.69454586       2.27323692      -0.30918048       0.00000000
Si       2.47747117       0.56834181       2.60556873       0.00000000
Si      -1.24033756      -3.40156377       0.94389251       0.00000000
Si      -3.22636549      -1.96950987       0.72592460       0.00000000
Si      -0.09368542       3.62543724       1.40120249       0.00000000
