10
Lattice="16.28999089631971 0.0 0.0 0.0 16.28999089631971 0.0 0.0 0.0 34.642051614445585" Properties=species:S:1:pos:R:3:initial_magmoms:R:1 pbc="T T T"
Si       1.35422028      -1.35085802      -1.36365048       0.00000000
Si      -1.36216654       1.36321236      -1.36181445       0.00000000
Si      -1.36603379      -1.36890897       1.35509389       0.00000000
Si       1.37857383       1.37140623       1.35211467       0.00000000
Si      -2.42971540       0.23703579       2.69834019       0.00000000
Si       2.70878265      -2.70318608      -0.00426097       0.00000000
Si      -2.72146687      -2.70660698      -0.00484989       0.00000000
Si      -0.00446346      -2.70924075      -2.71988756       0.00000000
Si       2.70998811       2.71940373      -0.00505774       0.00000000
Si       2.71106325       0.00558747      -2.72061504       0.00000000
