10
Lattice="16.28999089631971 0.0 0.0 0.0 16.28999089631971 0.0 0.0 0.0 34.642051614445585" Properties=species:S:1:pos:R:3:initial_magmoms:R:1 pbc="T T T"
Si       1.59030636       1.52749701      -0.81505865       0.00000000
Si      -0.84611467      -0.98943831      -1.96143406       0.00000000
Si       1.29190614      -1.75874985       0.94933131       0.00000000
Si      -1.57989772       1.41276654       1.09735688       0.00000000
Si       2.82557706       1.80131562       1.21697595       0.00000000
Si      -1.88727373       3.02233257      -0.61607459       0.00000000
Si       1.02789248      -2.13949602      -2.73658504       0.00000000
Si      -3.40786378      -0.07837119       1.38447037       0.00000000
Si       2.41673064      -2.69206911      -0.90332664       0.00000000
Si       0.38638577       3.60180045      -1.02931985       0.00000000
