10
Lattice="16.28999089631971 0.0 0.0 0.0 16.28999089631971 0.0 0.0 0.0 34.642051614445585" Properties=species:S:1:pos:R:3:initial_magmoms:R:1 pbc="T T T"
Si      -1.35543309      -1.33769800      -1.35994378       0.00000000
Si      -1.06368161       1.60594476       1.34324630       0.00000000
Si       1.36603379       1.36890897      -1.35509389       0.00000000
Si       1.08191990      -1.61449768       1.42687226       0.00000000
Si       2.26683821       0.22224447       2.33830515       0.00000000
Si      -2.41962279       0.13871587       2.48532610       0.00000000
Si       0.96280742       2.30455770       2.48303972       0.00000000
Si       2.69213753      -2.69364502      -0.00031178       0.00000000
Si      -2.70769515      -2.69678899       0.01001156       0.00000000
Si       0.00432011      -2.69674012      -2.71656192       0.00000000
