10
Lattice="16.28999089631971 0.0 0.0 0.0 16.28999089631971 0.0 0.0 0.0 34.642051614445585" Properties=species:S:1:pos:R:3:initial_magmoms:R:1 pbc="T T T"
Si       1.18491831       1.83674215       0.91143289       0.00000000
Si       1.61021763      -1.07914734      -1.42718404       0.00000000
Si      -1.08191990       1.61449768      -1.42687226       0.00000000
Si      -1.21520468      -1.69205859       1.89648018       0.00000000
Si      -2.49946334      -2.53467513       0.04025409       0.00000000
Si       2.64378555       0.60313629       2.36047607       0.00000000
Si      -2.43735298       0.27679968      -2.78681604       0.00000000
Si       0.28360890      -2.44141488      -2.78553428       0.00000000
Si       2.97435852      -2.44846845      -0.16749441       0.00000000
Si      -2.14560151       3.22044245      -0.08362596       0.00000000
