10
Lattice="16.290000149 0.0 0.0 0.0 16.290000149 0.0 0.0 0.0 29.1751946751" Properties=species:S:1:pos:R:3:initial_magmoms:R:1 pbc="T T T"
Si      -1.34564361      -1.32895450       1.38161177       0.00000000
Si       1.36238158       1.36772470       1.36320222       0.00000000
Si      -1.38550198       1.33990138      -1.37197520       0.00000000
Si       1.38430792      -1.37117818      -1.35133958       0.00000000
Si       2.68441283       0.11297115      -2.62513121       0.00000000
Si      -2.67695201      -2.68915322       0.00311591       0.00000000
Si      -2.60554578      -0.15022638      -2.77019349       0.00000000
Si      -0.04005711       2.80171713      -2.60594298       0.00000000
Si      -2.70027929       0.05944221       2.71150467       0.00000000
Si       0.02379969      -2.67801086       2.74511449       0.00000000
