10
Lattice="16.290000149 0.0 0.0 0.0 16.290000149 0.0 0.0 0.0 29.1751946751" Properties=species:S:1:pos:R:3:initial_magmoms:R:1 pbc="T T T"
Si      -1.33856560      -1.37842723       1.31816447       0.00000000
Si       1.27189063      -1.33498180      -1.47040064       0.00000000
Si      -1.39823587       1.34310237      -1.35731758       0.00000000
Si       1.23681826       1.42954200       1.42777568       0.00000000
Si       0.20971746      -2.69415425       2.50862911       0.00000000
Si      -2.70355358      -0.00770517       2.66139043       0.00000000
Si       2.64676664       2.71808426       0.04738052       0.00000000
Si      -0.28540080       2.74851399       2.62366691       0.00000000
Si      -0.06177168       2.70472646      -2.72694710       0.00000000
Si       2.66328470       0.01387927      -2.77097246       0.00000000
