10
Lattice="16.290000149 0.0 0.0 0.0 16.290000149 0.0 0.0 0.0 29.1751946751" Properties=species:S:1:pos:R:3:initial_magmoms:R:1 pbc="T T T"
Si       1.32649797      -1.36080145       1.37493940       0.00000000
Si      -1.37036042      -1.36870210      -1.32510817       0.00000000
Si      -1.36521278       1.34980570       1.35016966       0.00000000
Si       1.36740216       1.36583506      -1.34415957       0.00000000
Si      -2.69468857       0.01239669      -2.68817326       0.00000000
Si       0.00948893      -2.71643246      -2.66623352       0.00000000
Si       2.68308031       0.00698841       2.71145507       0.00000000
Si      -0.02190028       2.71050941       2.70328601       0.00000000
Si      -2.69941267       2.71660187      -0.01344976       0.00000000
Si       2.72650945       0.01053963      -2.69844293       0.00000000
