10
Lattice="16.290000149 0.0 0.0 0.0 16.290000149 0.0 0.0 0.0 29.1751946751" Properties=species:S:1:pos:R:3:initial_magmoms:R:1 pbc="T T T"
Si       1.07391826      -1.41638293      -1.50406881       0.00000000
Si      -1.54828306       1.31572702      -1.19046464       0.00000000
Si      -1.05059098      -1.77147236       1.17643137       0.00000000
Si       2.13890960       0.97448410       0.66560289       0.00000000
Si       0.20657349       0.79957837       3.37691208       0.00000000
Si       2.35657658      -2.71565705      -0.05989667       0.00000000
Si      -0.20971746       2.69415425      -2.50862911       0.00000000
Si      -1.40965516      -0.89155171       3.31135542       0.00000000
Si       2.43517583      -0.10661805      -2.81050485       0.00000000
H        3.05463567      -1.88543720       0.98087004       0.00000000
