10
Lattice="16.290000149 0.0 0.0 0.0 16.290000149 0.0 0.0 0.0 29.1751946751" Properties=species:S:1:pos:R:3:initial_magmoms:R:1 pbc="T T T"
Si      -1.35547462      -1.31452156       1.39957785       0.00000000
Si       1.34340373       1.36948402       1.36316721       0.00000000
Si      -1.37376829       1.35146728      -1.36106076       0.00000000
Si       1.42702030      -1.37554390      -1.29370107       0.00000000
Si      -2.67579542      -2.65541663       0.00513483       0.00000000
Si      -2.54715329      -0.11619657      -2.81116130       0.00000000
Si       2.68511330      -0.00669519      -2.71943448       0.00000000
Si       2.71072118       2.71969697       0.01290711       0.00000000
Si      -0.00316026      -2.68169240       2.75634110       0.00000000
Si       2.80196148      -2.63995742       0.12366490       0.00000000
