10
Lattice="16.290000149 0.0 0.0 0.0 16.290000149 0.0 0.0 0.0 29.1751946751" Properties=species:S:1:pos:R:3:initial_magmoms:R:1 pbc="T T T"
Si      -1.34509226       1.35666379      -1.36846251       0.00000000
Si       1.32712914      -1.34809525      -1.39439925       0.00000000
Si      -1.34025413      -1.40589217       1.33068063       0.00000000
Si       1.34652076       1.37798740       1.35752181       0.00000000
Si       2.66289938      -2.70772382      -0.02914602       0.00000000
Si      -2.72966082      -0.07490142       2.64616098       0.00000000
Si      -2.69152593       2.72122823      -0.02030594       0.00000000
Si       2.71753604       0.03482802       2.71416836       0.00000000
Si       2.70608417       2.72759762       0.00131288       0.00000000
Si       0.00307345       2.71218728      -2.72373782       0.00000000
