10
Lattice="16.290000149 0.0 0.0 0.0 16.290000149 0.0 0.0 0.0 29.1751946751" Properties=species:S:1:pos:R:3:initial_magmoms:R:1 pbc="T T T"
Si       1.72095707      -0.75833209      -1.37922815       0.00000000
Si       1.35840682       1.34574949       1.34141710       0.00000000
Si      -1.43831905       1.18623781      -1.44405544       0.00000000
Si      -1.19168519      -1.69280795       1.18964774       0.00000000
Si      -1.66407239      -0.66787372      -2.87792873       0.00000000
Si       0.64477450      -0.84595600      -3.47829588       0.00000000
Si       2.56588679      -2.60301170      -0.25446605       0.00000000
Si      -2.65239582      -0.41256054       2.53459504       0.00000000
Si      -0.08690715       2.53938296       2.69884555       0.00000000
Si       2.63756279      -0.14936301       2.67965731       0.00000000
