10
Lattice="16.290000149 0.0 0.0 0.0 16.290000149 0.0 0.0 0.0 29.1751946751" Properties=species:S:1:pos:R:3:initial_magmoms:R:1 pbc="T T T"
Si      -2.30671289      -0.08794971       0.36209334       0.00000000
H       -0.90350857       1.56939490      -1.48971462       0.00000000
Si       0.97358815      -0.40005471      -2.15371287       0.00000000
Si       1.02164365       2.15115968       0.39202709       0.00000000
Si       0.05499504      -2.06679377       1.28977701       0.00000000
H       -2.91931464       1.21930651      -0.07568046       0.00000000
Si       2.84151360       1.26286597       1.53893317       0.00000000
Si       2.89093746      -1.46247712      -1.37537703       0.00000000
Si       3.52971723      -0.78712303       0.77212153       0.00000000
Si      -3.15578028      -1.75000214      -1.03361880       0.00000000
