10
Lattice="16.290000149 0.0 0.0 0.0 16.290000149 0.0 0.0 0.0 29.1751946751" Properties=species:S:1:pos:R:3:initial_magmoms:R:1 pbc="T T T"
Si       1.35658234       1.36778986       1.33651567       0.00000000
Si      -1.32649797       1.36080145      -1.37493940       0.00000000
Si       1.38453598      -1.35333737      -1.33496938       0.00000000
Si      -1.34867029      -1.35415350       1.37619393       0.00000000
Si       2.71140536       0.00215028       2.67343979       0.00000000
Si      -2.69685839      -0.00790065      -2.70004757       0.00000000
Si       0.05939334      -2.69329088       2.70573673       0.00000000
Si      -2.69171075       2.71060715      -0.02476974       0.00000000
Si       0.02919168      -2.71640639      -2.68618935       0.00000000
Si      -0.02148651       2.71257824       2.69327892       0.00000000
