10
Lattice="16.290000149 0.0 0.0 0.0 16.290000149 0.0 0.0 0.0 29.1751946751" Properties=species:S:1:pos:R:3:initial_magmoms:R:1 pbc="T T T"
Si      -1.50149818      -1.36282141       1.15977234       0.00000000
Si       1.39246921      -1.35250984      -1.31402159       0.00000000
Si       1.33946155       1.28811547       1.42973042       0.00000000
Si      -1.34182360       1.34532595      -1.38450886       0.00000000
H       -0.85975363      -2.20672487       2.23902114       0.00000000
Si      -0.00651600      -2.72370431      -2.62918102       0.00000000
Si       2.68843646       2.68087790       0.07816035       0.00000000
Si      -2.93389419      -0.13921434       2.44712780       0.00000000
Si       2.74269846      -2.66216069       0.11503779       0.00000000
Si       2.73367379      -0.00430056      -2.68598512       0.00000000
