10
Lattice="16.290000149 0.0 0.0 0.0 16.290000149 0.0 0.0 0.0 29.1751946751" Properties=species:S:1:pos:R:3:initial_magmoms:R:1 pbc="T T T"
Si       1.34690608       1.35685927       1.36274417       0.00000000
Si      -1.35231436       1.36717084      -1.35676325       0.00000000
Si      -1.36037791      -1.34449516       1.37228446       0.00000000
Si       1.37774305      -1.34863282      -1.35113244       0.00000000
Si      -0.05064561      -2.75278197      -2.59373899       0.00000000
Si       2.67791312      -2.69790095       0.06739470       0.00000000
Si      -0.02270826       2.72029970       2.69937654       0.00000000
Si      -2.67263516       0.02627577      -2.75120627       0.00000000
Si       2.69268815      -0.00231318       2.73199440       0.00000000
Si       2.69750999       2.73171900       0.01429585       0.00000000
