10
Lattice="16.290000149 0.0 0.0 0.0 16.290000149 0.0 0.0 0.0 29.1751946751" Properties=species:S:1:pos:R:3:initial_magmoms:R:1 pbc="T T T"
Si      -1.40994838      -1.28854227       1.38039516       0.00000000
Si       1.32379057      -1.39363232      -1.36574921       0.00000000
Si       1.39898521       1.37119447       1.31515943       0.00000000
Si      -1.34837218       1.33198444      -1.40755727       0.00000000
Si       0.00651600       2.72370431       2.62918102       0.00000000
Si      -2.64676664      -2.71808426      -0.04738052       0.00000000
Si       2.59061501      -2.79107976       0.05811699       0.00000000
Si       2.68938128      -0.03455109      -2.74240995       0.00000000
Si      -2.71722089       2.71914311      -0.09677412       0.00000000
Si       2.74018980       2.71940375      -0.05680410       0.00000000
