10
Lattice="16.290000149 0.0 0.0 0.0 16.290000149 0.0 0.0 0.0 29.1751946751" Properties=species:S:1:pos:R:3:initial_magmoms:R:1 pbc="T T T"
Si       1.41960835      -1.32994819      -1.30179719       0.00000000
Si       1.37303524       1.32641326       1.36251077       0.00000000
Si      -1.35060391      -1.37485972       1.34844832       0.00000000
Si      -1.35094600       1.31945743      -1.40746974       0.00000000
Si       0.10761174      -2.68998401      -2.64697205       0.00000000
Si       0.00353493       2.70454727       2.68443884       0.00000000
Si       2.75402001       2.64484442       0.00061268       0.00000000
Si      -2.72021825      -0.01141929       2.68508069       0.00000000
Si      -2.71363709       2.69288363      -0.05808781       0.00000000
Si       0.01637145       2.66967038      -2.75772984       0.00000000
