10
Lattice="16.290000149 0.0 0.0 0.0 16.290000149 0.0 0.0 0.0 29.1751946751" Properties=species:S:1:pos:R:3:initial_magmoms:R:1 pbc="T T T"
H       -0.17883162       1.38757895       0.61049095       0.00000000
Si       0.83386882      -1.24416831       1.71362840       0.00000000
Si       1.89558587       0.01641055      -1.33876216       0.00000000
Si      -1.90053803      -0.54804936      -1.28604258       0.00000000
Si       0.64150021       1.12296419      -2.94153065       0.00000000
Si      -2.63015084       1.64211021      -0.88365830       0.00000000
Si      -0.69110326       2.66992777      -1.78482171       0.00000000
Si       1.87325228       0.60965000       2.66591551       0.00000000
Si       2.33078951      -2.27320762      -1.03653632       0.00000000
Si      -0.99846298      -2.26612147       2.65604846       0.00000000
