10
Lattice="16.290000149 0.0 0.0 0.0 16.290000149 0.0 0.0 0.0 29.1751946751" Properties=species:S:1:pos:R:3:initial_magmoms:R:1 pbc="T T T"
Si       1.35575807      -1.40836825       1.31370067       0.00000000
Si      -1.46071063       1.28024740       1.34494730       0.00000000
Si       1.19168519       1.69280795      -1.18964774       0.00000000
Si      -1.10778680      -1.70829974      -1.24779390       0.00000000
Si       2.36329458      -2.64867257      -0.52935473       0.00000000
Si      -2.77792721      -2.49176729       0.19868308       0.00000000
Si       2.52914307       0.05929560       2.76380120       0.00000000
Si      -2.86361261       2.45037440      -0.11565047       0.00000000
Si      -0.13178447      -2.60814305       2.74909690       0.00000000
Si       0.30645400      -3.65731680      -1.25222853       0.00000000
