10
Lattice="16.290000149 0.0 0.0 0.0 16.290000149 0.0 0.0 0.0 29.1751946751" Properties=species:S:1:pos:R:3:initial_magmoms:R:1 pbc="T T T"
Si      -1.34690608      -1.35685927      -1.36274417       0.00000000
Si      -1.36961434       1.36344043       1.33663237       0.00000000
Si       1.35060391       1.37485972      -1.34844832       0.00000000
Si       1.34578207      -1.35917245       1.36925024       0.00000000
Si      -0.00425169       2.71884989       2.68388451       0.00000000
Si      -2.70728399      -2.70135443       0.00954029       0.00000000
Si      -2.69922044       0.01031157      -2.71950742       0.00000000
Si       0.03083697      -2.70549209      -2.71387661       0.00000000
Si       2.71632494      -2.70379793       0.02908767       0.00000000
Si       2.77021227       0.04491153      -2.65024551       0.00000000
