10
Lattice="16.290000149 0.0 0.0 0.0 16.290000149 0.0 0.0 0.0 29.1751946751" Properties=species:S:1:pos:R:3:initial_magmoms:R:1 pbc="T T T"
Si       1.34608344      -1.48681601       1.15918883       0.00000000
Si      -1.20841029      -1.34158137      -1.45890561       0.00000000
Si       1.39663131       1.28370577      -1.39609142       0.00000000
Si      -1.25141997       1.25738113       1.60784498       0.00000000
H        1.58254908       1.48249264       2.11712718       0.00000000
Si       2.19515083       0.17523642       2.55490097       0.00000000
Si      -2.39204806      -2.53690200       0.11518367       0.00000000
Si      -2.54027077       2.60189258       0.10217153       0.00000000
Si       0.02442523       2.59938392      -2.76744227       0.00000000
Si       2.69833264       2.73872858      -0.10433050       0.00000000
