10
Lattice="16.290000149 0.0 0.0 0.0 16.290000149 0.0 0.0 0.0 29.1751946751" Properties=species:S:1:pos:R:3:initial_magmoms:R:1 pbc="T T T"
Si      -1.38122911       1.34376211       1.32119869       0.00000000
Si      -1.37057545      -1.36070371      -1.32449549       0.00000000
Si       1.35413884       1.39287646      -1.32335766       0.00000000
Si       1.34998489      -1.34806267       1.37540620       0.00000000
Si       0.03771135       2.65582388       2.62935607       0.00000000
Si       0.01721853      -2.67343337      -2.68125874       0.00000000
Si      -2.72492607       0.01093059      -2.66235321       0.00000000
Si       2.70822881      -2.68563458       0.01811780       0.00000000
Si       2.69861771       0.06253731      -2.70923775       0.00000000
Si      -2.72432333      -0.00975771       2.68554749       0.00000000
