10
Lattice="16.290000149 0.0 0.0 0.0 16.290000149 0.0 0.0 0.0 29.1751946751" Properties=species:S:1:pos:R:3:initial_magmoms:R:1 pbc="T T T"
Si      -1.38688174       1.29425680      -1.35615057       0.00000000
Si       0.87648346       1.88037101       1.06734532       0.00000000
Si      -1.36601425      -1.31196403       1.36557416       0.00000000
Si       1.45122724      -1.35972631      -1.22804229       0.00000000
Si       0.06931395      -2.70961346      -2.56948857       0.00000000
Si      -2.42025419       0.15609078       2.84259757       0.00000000
Si      -2.56227041       2.74864431       0.05963410       0.00000000
Si       0.00298107       2.62889651      -2.69015718       0.00000000
Si       2.79673239      -0.01528002      -2.58573915       0.00000000
Si      -2.73460232      -0.04898403      -2.66958866       0.00000000
