10
Lattice="16.290000149 0.0 0.0 0.0 16.290000149 0.0 0.0 0.0 29.1751946751" Properties=species:S:1:pos:R:3:initial_magmoms:R:1 pbc="T T T"
Si       1.36774099       1.35785296       1.32872589       0.00000000
Si       1.37125963      -1.35637057      -1.33269372       0.00000000
Si      -1.34273584       1.38331423      -1.34363442       0.00000000
Si      -1.37500633      -1.33732756       1.36140211       0.00000000
Si      -0.07260453       2.69159672       2.60782478       0.00000000
Si      -0.00185706      -2.70381422      -2.67577380       0.00000000
Si      -2.69068448       0.02151909      -2.69421253       0.00000000
Si      -0.02018331      -2.70296714       2.69832623       0.00000000
Si       2.72148887       0.00840564      -2.68878594       0.00000000
Si       2.72220563       2.70984152      -0.03118828       0.00000000
