10
Lattice="16.290000149 0.0 0.0 0.0 16.290000149 0.0 0.0 0.0 29.1751946751" Properties=species:S:1:pos:R:3:initial_magmoms:R:1 pbc="T T T"
Si       1.39015603       1.34477209       1.27552201       0.00000000
Si       1.25806042      -1.40087485      -1.36469307       0.00000000
Si      -1.31484736       1.26377821      -1.47267630       0.00000000
Si      -1.41110497      -1.40437720       1.25752091       0.00000000
Si      -2.17232039      -0.67274443      -2.51318336       0.00000000
Si      -0.46703430      -2.34119882      -2.64030756       0.00000000
Si      -0.03512124       2.70503597       2.54510978       0.00000000
Si       2.72025149      -0.06372648       2.58674278       0.00000000
Si       2.57942378      -0.07517835      -2.73017183       0.00000000
Si       2.68548797       2.65944026      -0.19347530       0.00000000
