10
Lattice="16.290000149 0.0 0.0 0.0 16.290000149 0.0 0.0 0.0 29.1751946751" Properties=species:S:1:pos:R:3:initial_magmoms:R:1 pbc="T T T"
Si       1.44531397      -1.19363347      -1.35742845       0.00000000
Si      -1.34544487      -1.46181574       1.23396778       0.00000000
Si      -1.35774219       1.24207993      -1.45674081       0.00000000
Si       1.42654789       1.35948196       1.27964446       0.00000000
Si      -2.70594821      -0.00350235       2.52098773       0.00000000
Si       0.08690715      -2.53938296      -2.69884555       0.00000000
Si       0.09690921       2.67392207       2.69941738       0.00000000
Si      -2.52838672       2.83376200      -0.17002720       0.00000000
Si       2.75556756      -0.03614751       2.64885385       0.00000000
Si       0.04005711      -2.80171713       2.60594298       0.00000000
