10
Lattice="16.290000149 0.0 0.0 0.0 16.290000149 0.0 0.0 0.0 29.1751946751" Properties=species:S:1:pos:R:3:initial_magmoms:R:1 pbc="T T T"
Si      -1.33289994      -1.35351982       1.37397662       0.00000000
Si       1.35319402      -1.36000324      -1.35979747       0.00000000
Si      -1.40806363       1.33913738      -1.32954280       0.00000000
Si       1.34529337       1.34725469       1.38964370       0.00000000
Si      -2.65886376       0.10012763       2.65870632       0.00000000
Si       2.65201202       2.69544116      -0.03229694       0.00000000
Si      -0.05939334       2.69329088      -2.70573673       0.00000000
Si       2.71489142      -0.00786807      -2.70850837       0.00000000
Si      -2.72280171      -2.70918992       0.01785522       0.00000000
Si      -0.01684386      -2.72241740      -2.71119249       0.00000000
