10
Lattice="16.290000149 0.0 0.0 0.0 16.290000149 0.0 0.0 0.0 29.1751946751" Properties=species:S:1:pos:R:3:initial_magmoms:R:1 pbc="T T T"
Si       1.21523401      -1.41480280       1.44981900       0.00000000
Si      -1.48708153      -1.25258698      -1.37505610       0.00000000
Si      -1.48198276       1.29887111       1.33949154       0.00000000
Si       1.61718976       1.48748715      -0.93894529       0.00000000
Si       2.55660149      -2.77016340       0.10555585       0.00000000
H        1.17074602      -1.11303055      -3.45221326       0.00000000
Si       0.88757695       3.67764672      -0.53656101       0.00000000
Si      -2.79850800      -2.61900848       0.11095327       0.00000000
H        3.06774912      -0.68712850      -2.21002100       0.00000000
Si      -0.18412587       2.58261174       2.84576891       0.00000000
