10
Lattice="16.290000149 0.0 0.0 0.0 16.290000149 0.0 0.0 0.0 29.1751946751" Properties=species:S:1:pos:R:3:initial_magmoms:R:1 pbc="T T T"
Si       1.53756424      -1.27189063      -1.19778762       0.00000000
Si       1.39538512       1.32149368       1.36527366       0.00000000
Si      -1.21696075      -1.43446483       1.44258501       0.00000000
Si      -1.47175264       1.20943477      -1.45455851       0.00000000
H        0.35606682      -1.80890678      -2.24967009       0.00000000
Si      -2.67103874       2.68231142      -0.02535324       0.00000000
Si       2.85478082       2.50012406      -0.05152339       0.00000000
Si      -2.64860741      -0.06265134       2.72697627       0.00000000
Si      -0.14131575       2.54166356      -2.85301311       0.00000000
Si       0.06485049       2.76180663       2.67926899       0.00000000
