10
Lattice="16.290000149 0.0 0.0 0.0 16.290000149 0.0 0.0 0.0 29.1751946751" Properties=species:S:1:pos:R:3:initial_magmoms:R:1 pbc="T T T"
Si       1.41690421      -1.34320369       1.25436999       0.00000000
Si      -1.49801212       1.23571054       1.27985160       0.00000000
Si      -1.03938346      -1.85381831      -0.95228711       0.00000000
Si       0.86578093       1.72792919      -1.38240446       0.00000000
H       -2.05208390       0.77792896      -2.05542456       0.00000000
Si      -1.87325228      -0.60965000      -2.66591551       0.00000000
Si      -0.07828974       2.66475080       2.51542402       0.00000000
Si       2.64855854      -2.54415593      -0.34186910       0.00000000
Si      -0.83950516       3.39638358      -1.25528026       0.00000000
Si      -0.04341285      -2.77980708       2.46941473       0.00000000
