10
Lattice="16.290000149 0.0 0.0 0.0 16.290000149 0.0 0.0 0.0 29.1751946751" Properties=species:S:1:pos:R:3:initial_magmoms:R:1 pbc="T T T"
Si       1.33356457       1.33997469      -1.32887468       0.00000000
Si      -1.33033915       1.41974682       1.28604258       0.00000000
Si       1.43407387      -1.34626263       1.26179799       0.00000000
Si      -1.36060597      -1.28261173      -1.41014219       0.00000000
Si       0.05390361      -2.69030167       2.59586295       0.00000000
Si      -2.67905342       0.04642161       2.62308340       0.00000000
Si       0.05497875       2.77070911       2.61047972       0.00000000
Si       2.78057271       0.04189788       2.60126036       0.00000000
Si      -2.71063973      -2.67764434      -0.09969164       0.00000000
Si      -0.04013856      -2.77150732      -2.61859334       0.00000000
