10
Lattice="16.290000149 0.0 0.0 0.0 16.290000149 0.0 0.0 0.0 29.1751946751" Properties=species:S:1:pos:R:3:initial_magmoms:R:1 pbc="T T T"
Si       1.35824392      -1.33757191      -1.35728841       0.00000000
Si       1.38036574       1.32582682       1.35501274       0.00000000
Si      -1.35047359      -1.35071794       1.36989209       0.00000000
Si      -1.34998489       1.34806267      -1.37540620       0.00000000
Si      -0.00904095       2.65681757       2.67049309       0.00000000
Si      -0.00420282      -2.69661404      -2.68508069       0.00000000
Si       2.69244380      -2.70436808       0.00633102       0.00000000
Si      -2.71552673       0.01544292       2.69788860       0.00000000
Si      -2.72056034      -0.01264104      -2.69990169       0.00000000
Si      -2.73121401       2.69182478      -0.05420751       0.00000000
