10
Lattice="16.290000149 0.0 0.0 0.0 16.290000149 0.0 0.0 0.0 29.1751946751" Properties=species:S:1:pos:R:3:initial_magmoms:R:1 pbc="T T T"
H       -0.31012902      -0.34104744       1.42891351       0.00000000
H        0.92457154       1.22021875       0.54111234       0.00000000
Si      -1.35837424       1.42408810      -1.22305334       0.00000000
Si       1.57354885      -1.13427271      -1.29216937       0.00000000
H       -1.92683009      -1.52137198       0.96712853       0.00000000
Si       1.78235408       1.97087825       1.68372966       0.00000000
Si      -2.84255616       1.33854931       0.65186137       0.00000000
H       -0.93237445      -2.18646011       2.40246058       0.00000000
Si      -2.62488917      -2.35159184      -0.07363819       0.00000000
Si       0.17226675      -2.45884520      -2.61541033       0.00000000
