10
Lattice="16.290000149 0.0 0.0 0.0 16.290000149 0.0 0.0 0.0 29.1751946751" Properties=species:S:1:pos:R:3:initial_magmoms:R:1 pbc="T T T"
Si       1.24175413      -1.39048183       1.36974621       0.00000000
Si      -1.35855343       1.34884459       1.33368567       0.00000000
Si      -1.29479437      -1.43570287      -1.31291294       0.00000000
Si       1.45670068       1.29823156      -1.30331430       0.00000000
Si       2.67893939      -0.06002865       2.58241318       0.00000000
Si      -2.64961739      -0.07006329      -2.64983706       0.00000000
Si       0.09312993       2.62511723      -2.68251327       0.00000000
Si       0.02137248       2.69588099       2.63174844       0.00000000
Si      -2.60151302      -2.78388935       0.10902770       0.00000000
Si       0.12891906      -2.79589345      -2.61123827       0.00000000
