10
Lattice="16.290000149 0.0 0.0 0.0 16.290000149 0.0 0.0 0.0 29.1751946751" Properties=species:S:1:pos:R:3:initial_magmoms:R:1 pbc="T T T"
Si      -1.35956341      -1.34961022       1.35620892       0.00000000
Si      -1.38823055       1.35019666      -1.33056393       0.00000000
Si       1.31877325      -1.36239787      -1.39048978       0.00000000
Si       1.37003788       1.36241416       1.35139502       0.00000000
Si      -0.01335780       2.69930189      -2.68073359       0.00000000
Si       2.68483637      -2.71950149      -0.06080111       0.00000000
Si       0.01145187      -2.69276960       2.71285548       0.00000000
Si       2.68048694      -0.01870092      -2.73969666       0.00000000
Si      -2.70301072      -0.01541034      -2.72505071       0.00000000
Si       0.01684386       2.72241740       2.71119249       0.00000000
