10
Lattice="16.290000149 0.0 0.0 0.0 16.290000149 0.0 0.0 0.0 29.1751946751" Properties=species:S:1:pos:R:3:initial_magmoms:R:1 pbc="T T T"
Si      -0.53612019      -0.25759377       1.38553000       0.00000000
H       -0.67479697      -0.92460412      -1.61718104       0.00000000
H       -1.59620824       0.84317041      -1.16522810       0.00000000
H        1.27234675       1.75676249       0.42400310       0.00000000
Si       0.45348102      -0.98520292      -2.62419206       0.00000000
Si       2.18134505       1.82855252      -0.79236911       0.00000000
Si       2.51616971      -0.29035296      -1.72877616       0.00000000
Si       1.15372297      -1.18610749       2.69689665       0.00000000
Si      -2.33435702      -1.85329703       1.26652438       0.00000000
Si      -1.38548080       1.61720605       2.50116026       0.00000000
