10
Lattice="16.290000149 0.0 0.0 0.0 16.290000149 0.0 0.0 0.0 29.1751946751" Properties=species:S:1:pos:R:3:initial_magmoms:R:1 pbc="T T T"
Si      -1.30697929       1.42530985       1.30191710       0.00000000
Si       1.26449497       1.48353031      -1.32659610       0.00000000
Si       1.45179739      -1.41700195       1.21733500       0.00000000
Si      -1.37865529      -1.02833884      -1.63220627       0.00000000
Si       0.33739848      -1.47061234      -3.15672689       0.00000000
Si      -0.42534819       2.41204403      -2.63796275       0.00000000
Si       2.23598171       0.02902878      -2.83827964       0.00000000
Si      -2.22358502       0.81634078      -2.75696837       0.00000000
Si       2.40894893      -2.68770341      -0.53656101       0.00000000
Si      -2.60708420      -0.05883948       2.57570872       0.00000000
