10
Lattice="16.290000149 0.0 0.0 0.0 16.290000149 0.0 0.0 0.0 29.1751946751" Properties=species:S:1:pos:R:3:initial_magmoms:R:1 pbc="T T T"
Si      -1.88445980      -1.34311051      -0.39196874       0.00000000
Si       0.52343028       1.25140921      -1.93294417       0.00000000
H       -0.89645500      -0.98899849       2.06659574       0.00000000
Si       1.93341125      -1.49076307       0.31482953       0.00000000
Si      -1.61458336       1.53029239       1.07583530       0.00000000
H       -2.79345810      -1.41490054       0.82440348       0.00000000
Si       0.19502388       2.85663072       1.68218337       0.00000000
Si      -2.77566942       0.07872957      -1.98216273       0.00000000
Si      -0.01282023      -1.84075373       2.95483454       0.00000000
Si       1.54531828      -0.37726011      -3.25318008       0.00000000
