10
Lattice="16.290000149 0.0 0.0 0.0 16.290000149 0.0 0.0 0.0 29.1751946751" Properties=species:S:1:pos:R:3:initial_magmoms:R:1 pbc="T T T"
Si       1.36042678      -1.35323475       1.35177429       0.00000000
Si      -1.36213723       1.36486581       1.34436380       0.00000000
Si       1.34974054       1.38609168      -1.33666154       0.00000000
Si      -1.34649883      -1.38816051      -1.33946236       0.00000000
Si      -2.78057271      -0.04189788      -2.60126036       0.00000000
Si      -0.00060273      -2.71714759       2.69176181       0.00000000
Si       2.79295311       0.05516120      -2.61853207       0.00000000
Si      -0.00342090       2.70838357       2.70958786       0.00000000
Si      -2.72771165       0.01828553       2.69141171       0.00000000
Si      -0.02728575       2.72711707      -2.69456263       0.00000000
