10
Lattice="16.290000149 0.0 0.0 0.0 16.290000149 0.0 0.0 0.0 29.1751946751" Properties=species:S:1:pos:R:3:initial_magmoms:R:1 pbc="T T T"
Si      -1.68280589       1.67138660       0.25837552       0.00000000
Si       0.35647407      -0.23209992       2.36088593       0.00000000
Si       1.63781290       1.05878485      -1.43425257       0.00000000
Si      -1.07054623      -1.68575438      -1.38617185       0.00000000
H        1.88647650      -1.63435942       0.25963006       0.00000000
H        0.54418374       2.46216836       1.38567587       0.00000000
H       -1.08602173       0.05411538       2.80061446       0.00000000
Si      -2.41334723      -0.27233622      -2.75787280       0.00000000
Si       0.34376787       2.47537955      -2.78678542       0.00000000
Si      -3.54274923       0.83717569      -1.00245969       0.00000000
