10
Lattice="16.290000149 0.0 0.0 0.0 16.290000149 0.0 0.0 0.0 29.1751946751" Properties=species:S:1:pos:R:3:initial_magmoms:R:1 pbc="T T T"
H       -0.06988410      -1.07380423      -1.06081008       0.00000000
Si       2.19814493       0.18515214       0.65235735       0.00000000
Si      -1.62069211      -0.67886947       1.55956003       0.00000000
Si      -0.44790984       2.13135104      -0.89314023       0.00000000
H       -1.89040565       2.41756634      -0.45341170       0.00000000
H        1.08209258       0.72909154      -2.99439611       0.00000000
Si      -3.15845184      -1.39647655      -0.04816825       0.00000000
H       -1.28306557      -3.24764773       0.67076690       0.00000000
Si       2.99214723      -2.07686099       0.43649009       0.00000000
Si       3.51098373      -0.08250885      -1.26013501       0.00000000
