10
Lattice="16.290000149 0.0 0.0 0.0 16.290000149 0.0 0.0 0.0 29.1751946751" Properties=species:S:1:pos:R:3:initial_magmoms:R:1 pbc="T T T"
Si       1.41894046       1.31206177       1.30815738       0.00000000
Si       1.38122911      -1.34376211      -1.32119869       0.00000000
Si      -1.34309422      -1.35351982       1.36434880       0.00000000
Si      -1.35967744       1.39815442      -1.30278914       0.00000000
Si       0.00361638       2.68128515       2.51586456       0.00000000
Si       0.01065366      -2.70446582      -2.64569418       0.00000000
Si      -2.71319726       0.04530249      -2.66162384       0.00000000
Si       2.73536796       0.04911435      -2.64455635       0.00000000
Si       0.01642032       2.74253556      -2.64210563       0.00000000
Si      -2.72083727      -2.69184107       0.02923355       0.00000000
