10
Lattice="16.290000149 0.0 0.0 0.0 16.290000149 0.0 0.0 0.0 29.1751946751" Properties=species:S:1:pos:R:3:initial_magmoms:R:1 pbc="T T T"
Si       1.37300266      -1.46579050       1.16852490       0.00000000
Si       1.39139407       1.34886107      -1.30057183       0.00000000
Si      -1.36295173      -1.38290698      -1.31688076       0.00000000
Si      -1.27189063       1.33498180       1.47040064       0.00000000
Si       0.01174509      -2.77555539       2.47496094       0.00000000
Si       0.01625742       2.69449634      -2.63367400       0.00000000
Si      -2.67012650       2.67808417       0.11308305       0.00000000
Si       2.56091834      -0.29914956       2.76971793       0.00000000
Si       2.69866658       2.65943375       0.15203194       0.00000000
Si       2.74336635      -0.04093677      -2.63332390       0.00000000
