10
Lattice="16.290000149 0.0 0.0 0.0 16.290000149 0.0 0.0 0.0 29.1751946751" Properties=species:S:1:pos:R:3:initial_magmoms:R:1 pbc="T T T"
Si      -1.61223760       0.17386317       1.67879905       0.00000000
Si       0.83577475       1.92893801      -1.01687224       0.00000000
Si       1.76871935      -1.15606873       1.03084715       0.00000000
Si      -1.56313954      -0.77735881      -1.59354913       0.00000000
H       -0.20922876       3.04426708      -0.99951299       0.00000000
Si      -2.04744125       2.46348134       1.37657321       0.00000000
Si       1.11505051       1.19322622      -3.22324633       0.00000000
Si       0.61703263      -2.79565725       2.21177151       0.00000000
Si      -2.47886561      -2.61420293      -0.42592867       0.00000000
Si      -0.41555790      -0.64961263      -3.65445571       0.00000000
