10
Lattice="16.290000149 0.0 0.0 0.0 16.290000149 0.0 0.0 0.0 29.1751946751" Properties=species:S:1:pos:R:3:initial_magmoms:R:1 pbc="T T T"
Si       1.34617303      -1.34495128       1.36536994       0.00000000
Si      -1.35408997       1.32928030       1.40110955       0.00000000
Si      -1.42208443      -1.45984465      -1.22503433       0.00000000
Si       1.46031706       1.43660338      -1.21504475       0.00000000
Si      -0.99597061       0.92598877      -3.42170184       0.00000000
Si       0.04341285       2.77980708      -2.46941473       0.00000000
Si      -2.82830241      -0.09596439      -2.47928179       0.00000000
Si       2.68991885      -2.64813500      -0.05852544       0.00000000
Si      -0.08412156      -2.61395858      -2.78200652       0.00000000
Si      -0.00967626      -2.71585253       2.71107579       0.00000000
