10
Lattice="16.290000149 0.0 0.0 0.0 16.290000149 0.0 0.0 0.0 29.1751946751" Properties=species:S:1:pos:R:3:initial_magmoms:R:1 pbc="T T T"
Si      -0.64174456       0.84390346      -1.07924880       0.00000000
Si       2.14575140       0.26481024       1.31728921       0.00000000
Si       2.24784083      -1.45411057      -0.48623379       0.00000000
Si       0.38786490       1.22833117       2.57660732       0.00000000
Si      -2.07414056       2.06751053       0.20810666       0.00000000
Si       0.42463143      -2.65390004      -1.49420760       0.00000000
Si      -2.07892982      -0.48654972      -2.29191577       0.00000000
Si      -0.68636287      -2.30943984       2.14026311       0.00000000
Si      -1.37456650      -0.25945083       2.90707475       0.00000000
Si       0.85975363       2.20672487      -2.23902114       0.00000000
