10
Lattice="16.290000149 0.0 0.0 0.0 16.290000149 0.0 0.0 0.0 29.1751946751" Properties=species:S:1:pos:R:3:initial_magmoms:R:1 pbc="T T T"
Si       1.36125757       1.30976488      -1.30643604       0.00000000
Si      -1.42042285      -1.40372560      -1.17462251       0.00000000
Si       1.28265832      -1.29927412       1.44417214       0.00000000
Si      -1.07391826       1.41638293       1.50406881       0.00000000
H        1.98071741      -0.46905426       2.48493886       0.00000000
Si       1.06499134       2.39086703       2.16967170       0.00000000
Si      -0.54692046      -2.15225111       2.58287998       0.00000000
Si      -2.12450924      -0.35508942       2.68050019       0.00000000
Si       2.54917325       2.47640582       0.29475699       0.00000000
Si       0.01454697      -2.72504009      -2.45795180       0.00000000
