10
Lattice="16.290000149 0.0 0.0 0.0 16.290000149 0.0 0.0 0.0 29.1751946751" Properties=species:S:1:pos:R:3:initial_magmoms:R:1 pbc="T T T"
Si       1.30697929      -1.42530985      -1.30191710       0.00000000
Si       1.41309235       1.29614644       1.34356119       0.00000000
Si      -1.30010491      -1.48414933       1.27379163       0.00000000
Si      -1.27915597       1.49511250      -1.33824021       0.00000000
Si       2.57147426       0.05822046      -2.62851320       0.00000000
Si      -2.68441283      -0.11297115       2.62513121       0.00000000
Si       0.03109761       2.65259846       2.66804209       0.00000000
Si      -2.63756279       0.14936301      -2.67965731       0.00000000
Si      -0.07167600      -2.45364869      -2.93412336       0.00000000
Si      -2.72446994       2.68874597       0.01918823       0.00000000
