10
Lattice="16.290000149 0.0 0.0 0.0 16.290000149 0.0 0.0 0.0 29.1751946751" Properties=species:S:1:pos:R:3:initial_magmoms:R:1 pbc="T T T"
H        0.90002251      -0.90614755       0.80742351       0.00000000
Si       1.34037379       1.29955105      -1.39897976       0.00000000
Si      -1.30170133      -1.45502281      -1.29176092       0.00000000
Si      -1.15411393       1.41952690       1.46123963       0.00000000
H       -1.11578356      -1.25623594       2.22145767       0.00000000
Si      -2.58284631       2.63088389       0.07451345       0.00000000
Si      -0.50318181      -2.56349216       2.65923147       0.00000000
Si      -2.67390741      -0.13934466      -2.66311177       0.00000000
Si      -0.01663209       2.65368989      -2.70299426       0.00000000
Si       2.72029970       2.64658745      -0.10091700       0.00000000
