10
Lattice="16.290000149 0.0 0.0 0.0 16.290000149 0.0 0.0 0.0 29.1751946751" Properties=species:S:1:pos:R:3:initial_magmoms:R:1 pbc="T T T"
Si      -1.56534847       1.07556355      -1.36347355       0.00000000
Si       1.38572515      -1.47737269      -1.21362975       0.00000000
Si      -0.84932803      -1.48690234       1.63176864       0.00000000
Si       0.42534819       1.81206704       1.48586349       0.00000000
H        0.34764489      -1.12098007       2.52132032       0.00000000
Si      -1.88349869       1.99014932       2.08623065       0.00000000
Si      -0.24614190       2.56090205      -2.63265287       0.00000000
Si      -3.04818483       2.14962842       0.07013717       0.00000000
Si       2.70158249      -0.12269628      -2.59939314       0.00000000
Si      -0.11859120      -2.81781165      -2.51425993       0.00000000
