10
Lattice="16.290000149 0.0 0.0 0.0 16.290000149 0.0 0.0 0.0 29.1751946751" Properties=species:S:1:pos:R:3:initial_magmoms:R:1 pbc="T T T"
H        0.69805909       0.83021986       1.04076672       0.00000000
Si      -1.82957879      -0.85297699       1.13870785       0.00000000
Si      -1.28265832       1.29927412      -1.44417214       0.00000000
Si       1.45321462      -1.42995250      -1.13024704       0.00000000
H        1.69251473       0.16513173       2.47609877       0.00000000
H        2.31476015       2.01054440       1.50255170       0.00000000
Si       2.62488917       2.35159184       0.07363819       0.00000000
Si      -2.35657658       2.71565705       0.05989667       0.00000000
Si      -1.18877905      -1.23927805       3.28991165       0.00000000
Si       0.09067014      -2.74862802      -2.51437663       0.00000000
