10
Lattice="16.290000149 0.0 0.0 0.0 16.290000149 0.0 0.0 0.0 29.1751946751" Properties=species:S:1:pos:R:3:initial_magmoms:R:1 pbc="T T T"
Si      -1.33103962      -1.35450700      -1.38447969       0.00000000
Si       1.33219621      -1.36832092       1.37070900       0.00000000
Si       1.35246097       1.35074075      -1.37324724       0.00000000
Si      -1.37117818       1.34103191       1.36420293       0.00000000
Si       0.00241092       2.72281488       2.67618226       0.00000000
Si      -2.69488730       2.70711132      -0.02666613       0.00000000
Si       2.70064908       0.00448790       2.70299426       0.00000000
Si       2.70363829      -2.70687023      -0.00921936       0.00000000
Si      -2.69206913      -2.71841984      -0.04449217       0.00000000
Si      -2.69146640      -0.00127225      -2.73625398       0.00000000
