10
Lattice="16.290000149 0.0 0.0 0.0 16.290000149 0.0 0.0 0.0 29.1751946751" Properties=species:S:1:pos:R:3:initial_magmoms:R:1 pbc="T T T"
H       -1.04500351       1.11532907       0.01735924       0.00000000
Si      -0.83577475      -1.92893801       1.01687224       0.00000000
Si       0.27927576      -0.73571179      -2.20637410       0.00000000
Si       1.86837994       0.90128335       1.11776006       0.00000000
Si       2.54746117      -1.22504711      -2.08894394       0.00000000
Si      -2.39891429      -2.70629682      -0.57667690       0.00000000
Si       0.93641437       1.71609613       3.11275987       0.00000000
H        0.16817796       3.28917257      -1.71421774       0.00000000
Si      -2.88321600       0.53454332       2.39344545       0.00000000
Si       0.93294460      -3.08500674       2.04771939       0.00000000
