10
Lattice="16.290000149 0.0 0.0 0.0 16.290000149 0.0 0.0 0.0 29.1751946751" Properties=species:S:1:pos:R:3:initial_magmoms:R:1 pbc="T T T"
Si      -0.65360368       0.42357258      -2.13137926       0.00000000
Si      -1.90785224      -0.79022791       1.12181833       0.00000000
Si       0.85747303       1.93652264       1.04050706       0.00000000
Si       1.70528609      -1.66845440      -0.12712420       0.00000000
H       -1.21257874      -2.61845462      -0.80014430       0.00000000
Si       2.17232039       0.67274443       2.51318336       0.00000000
Si      -0.65850697      -2.16067304       2.53513186       0.00000000
Si       3.43038081      -0.72813043       1.14849029       0.00000000
Si       0.83950516      -3.39638358       1.25528026       0.00000000
Si      -2.35489871       2.02129580      -2.14701716       0.00000000
