10
Lattice="16.290000149 0.0 0.0 0.0 16.290000149 0.0 0.0 0.0 29.1751946751" Properties=species:S:1:pos:R:3:initial_magmoms:R:1 pbc="T T T"
Si       1.25408566      -1.10655365       1.60276849       0.00000000
Si      -1.80960725      -1.32633833      -0.60634807       0.00000000
Si       1.21691188       1.32540328      -1.49225286       0.00000000
Si      -1.33260346       1.54696357       1.15670894       0.00000000
Si      -0.64150021      -1.12296419       2.94153065       0.00000000
H        3.09229815      -0.52576790      -0.77331771       0.00000000
Si      -0.19502388      -2.85663072      -1.68218337       0.00000000
Si       2.75467161       2.04301037       0.11547542       0.00000000
Si      -3.03096630       0.54457471      -1.55769282       0.00000000
Si      -2.54203823      -1.67101355       1.65548807       0.00000000
