10
Lattice="16.290000149 0.0 0.0 0.0 16.290000149 0.0 0.0 0.0 29.1751946751" Properties=species:S:1:pos:R:3:initial_magmoms:R:1 pbc="T T T"
Si       1.05423994      -1.46805481      -1.47702341       0.00000000
Si      -1.31585734      -1.35467641       1.38576340       0.00000000
Si      -1.44358723       1.35132067      -1.28499227       0.00000000
Si       1.81374491       0.75575827       1.38299175       0.00000000
Si       2.15474348      -1.19381266       2.75440095       0.00000000
Si       0.28284327      -2.65758320       2.59662150       0.00000000
Si       2.42025419      -0.15609078      -2.84259757       0.00000000
Si      -2.70158249       0.12269628       2.59939314       0.00000000
Si       2.27941085      -3.00035739      -0.23900319       0.00000000
Si      -0.14201622       2.59255352      -2.78296347       0.00000000
