10
Lattice="16.290000149 0.0 0.0 0.0 16.290000149 0.0 0.0 0.0 29.1751946751" Properties=species:S:1:pos:R:3:initial_magmoms:R:1 pbc="T T T"
Si      -1.45321462       1.42995250       1.13024704       0.00000000
Si      -1.36254448      -1.31867551      -1.38412959       0.00000000
Si       1.34394130       1.32269914      -1.41152509       0.00000000
Si       1.32221044      -1.32756985       1.43623648       0.00000000
H       -0.75515554       2.26017236       2.17101376       0.00000000
Si      -2.70804962      -2.66312180      -0.02643273       0.00000000
Si       2.70713738      -2.68341914       0.08169055       0.00000000
Si       2.74522341       2.64727163      -0.08828414       0.00000000
Si       0.00250866      -2.68483637      -2.71212610       0.00000000
Si       2.73334800      -0.00829161      -2.72700545       0.00000000
