10
Lattice="16.290000149 0.0 0.0 0.0 16.290000149 0.0 0.0 0.0 29.1751946751" Properties=species:S:1:pos:R:3:initial_magmoms:R:1 pbc="T T T"
Si      -1.37771047       1.36616086       1.31276706       0.00000000
Si      -1.37842723      -1.33527502      -1.34483060       0.00000000
Si       1.35378046       1.35353611      -1.36216066       0.00000000
Si       1.35423658      -1.34959393       1.37143838       0.00000000
Si       0.00003258       2.70448211       2.64788232       0.00000000
Si      -0.00788436      -2.67990050      -2.68499317       0.00000000
Si      -2.73217511       0.01417230       2.67268123       0.00000000
Si       2.71428869      -2.70032816       0.01537533       0.00000000
Si      -0.00057015       2.72517041      -2.70001839       0.00000000
Si      -2.72865648      -2.70005123       0.01126163       0.00000000
