10
Lattice="16.290000149 0.0 0.0 0.0 16.290000149 0.0 0.0 0.0 29.1751946751" Properties=species:S:1:pos:R:3:initial_magmoms:R:1 pbc="T T T"
Si      -1.34550514      -1.34444629       1.35769686       0.00000000
Si       1.36505314      -1.36616086      -1.32799651       0.00000000
Si       1.36254448       1.31867551       1.38412959       0.00000000
Si      -1.35878149       1.32286204      -1.38774731       0.00000000
Si      -0.09067014       2.74862802       2.51437663       0.00000000
Si       2.70648578       2.64137465      -0.02739551       0.00000000
Si      -2.79673239       0.01528002       2.58573915       0.00000000
Si      -0.00457749      -2.73121400      -2.66419125       0.00000000
Si       2.71552673      -0.01544292      -2.69788860       0.00000000
Si      -2.72741843      -2.69433344       0.01625058       0.00000000
