10
Lattice="16.290000149 0.0 0.0 0.0 16.290000149 0.0 0.0 0.0 29.1751946751" Properties=species:S:1:pos:R:3:initial_magmoms:R:1 pbc="T T T"
Si       0.45871011      -0.41822946       2.21360955       0.00000000
Si       1.82014688       1.30192939      -0.64083315       0.00000000
Si      -1.65192005       1.64947655      -0.09476103       0.00000000
Si      -0.67039867      -1.87711301      -1.29712916       0.00000000
H        1.81542278       0.15814332       2.48870246       0.00000000
Si       0.78797989       2.12758805      -2.59402491       0.00000000
Si      -2.08271236      -0.65863729      -2.68601430       0.00000000
Si      -3.41710446       0.61822180      -1.24394278       0.00000000
Si       3.63741042      -0.15934878      -0.80657743       0.00000000
Si      -0.74098324       3.38910195      -1.37645651       0.00000000
