10
Lattice="16.290000149 0.0 0.0 0.0 16.290000149 0.0 0.0 0.0 29.1751946751" Properties=species:S:1:pos:R:3:initial_magmoms:R:1 pbc="T T T"
Si      -1.38272779       1.35945264      -1.32084859       0.00000000
Si      -1.38930895      -1.35255871       1.32201560       0.00000000
Si       1.34918668       1.37321443       1.34874007       0.00000000
Si       1.35022924      -1.37727064      -1.34806905       0.00000000
Si      -0.03002247      -2.70418889       2.66553331       0.00000000
Si      -0.03401352       2.73277785      -2.65788941       0.00000000
Si      -2.73799064      -0.01265733      -2.65899807       0.00000000
Si       2.72432333       0.02757916       2.68184224       0.00000000
Si       2.73039951      -0.03323160      -2.68213400       0.00000000
Si      -2.69803127       0.01368360       2.71761103       0.00000000
