10
Lattice="16.290000149 0.0 0.0 0.0 16.290000149 0.0 0.0 0.0 29.1751946751" Properties=species:S:1:pos:R:3:initial_magmoms:R:1 pbc="T T T"
Si       1.32504490       1.33599862       1.33708458       0.00000000
Si      -1.41690421       1.34320369      -1.25436999       0.00000000
Si       1.23165433      -1.20095224      -1.59623909       0.00000000
Si      -1.46031706      -1.43660338       1.21504475       0.00000000
Si      -2.45628767      -0.51061462      -2.20665710       0.00000000
Si      -0.71032546      -2.05301699      -2.65837605       0.00000000
Si       2.62416600       2.62688828      -0.13464061       0.00000000
Si       2.64192086      -0.09867309       2.61344100       0.00000000
Si       2.53234568      -2.73086019      -0.27801335       0.00000000
Si      -0.11816766       2.66692910       2.61895511       0.00000000
