10
Lattice="16.290000149 0.0 0.0 0.0 16.290000149 0.0 0.0 0.0 29.1751946751" Properties=species:S:1:pos:R:3:initial_magmoms:R:1 pbc="T T T"
Si       1.36005211      -1.35073423      -1.35606305       0.00000000
Si       1.36963063       1.36505314       1.33619474       0.00000000
Si      -1.35399223      -1.35027811       1.36965869       0.00000000
Si      -1.35423658       1.34959393      -1.37143838       0.00000000
Si       0.00457749       2.73121400       2.66419125       0.00000000
Si       2.68376123      -2.71681364       0.03480601       0.00000000
Si      -2.72284094       0.03688056       2.68044184       0.00000000
Si      -2.71415837      -2.69562035       0.00288834       0.00000000
Si       0.00133578      -2.69425199      -2.72128711       0.00000000
Si       2.71590140       0.01915704      -2.71877804       0.00000000
