10
Lattice="16.290000149 0.0 0.0 0.0 16.290000149 0.0 0.0 0.0 29.1751946751" Properties=species:S:1:pos:R:3:initial_magmoms:R:1 pbc="T T T"
Si       0.06988410       1.07380423       1.06081008       0.00000000
H        1.15197668       1.80289577      -1.93358603       0.00000000
Si      -2.47052513      -1.39160584      -1.03040953       0.00000000
H       -1.21318147      -2.17384350       1.73157698       0.00000000
Si      -0.46568223      -2.25759202      -1.97734882       0.00000000
Si      -1.55080801       0.39493476       2.62037011       0.00000000
Si       2.26802903       1.25895637       1.71316743       0.00000000
Si      -0.37802574       3.20515527       0.16766984       0.00000000
Si      -3.08856774      -0.32267232       1.01264183       0.00000000
Si       2.28992279       0.83831599      -2.22367499       0.00000000
