10
Lattice="16.290000149 0.0 0.0 0.0 16.290000149 0.0 0.0 0.0 29.1751946751" Properties=species:S:1:pos:R:3:initial_magmoms:R:1 pbc="T T T"
Si      -1.32504490      -1.33599862      -1.33708458       0.00000000
Si       1.31687596      -1.43467172       1.27635642       0.00000000
Si      -1.44321256       1.33093048       1.28187053       0.00000000
Si       1.29912109       1.29088966      -1.47172519       0.00000000
Si       2.63082362      -0.05087856       2.64041347       0.00000000
Si      -0.07335387       2.67795059       2.61847372       0.00000000
Si      -2.74194911       0.00720507      -2.59145457       0.00000000
Si       2.66141787       2.68604672      -0.15343235       0.00000000
Si      -0.15107346       2.67545822      -2.69824454       0.00000000
Si      -0.08148258      -2.76937659       2.61074230       0.00000000
