10
Lattice="16.290000149 0.0 0.0 0.0 16.290000149 0.0 0.0 0.0 29.1751946751" Properties=species:S:1:pos:R:3:initial_magmoms:R:1 pbc="T T T"
H        1.07952202      -1.71352883      -0.78763748       0.00000000
Si      -0.24904152       0.51336306      -2.29844576       0.00000000
Si       1.94197979       0.85206475       1.06213697       0.00000000
Si      -1.74596222       1.54240237       0.45171896       0.00000000
Si      -0.83411317      -1.99754498       1.09141427       0.00000000
Si       0.71032546       2.05301699       2.65837605       0.00000000
Si      -2.17207604      -0.84343105       2.64838647       0.00000000
Si       1.98022871      -2.45615735      -1.76547330       0.00000000
Si      -2.14617494      -0.78784957      -2.93078893       0.00000000
Si      -0.70657876       3.39622068       1.40400606       0.00000000
