10
Lattice="16.290000149 0.0 0.0 0.0 16.290000149 0.0 0.0 0.0 29.1751946751" Properties=species:S:1:pos:R:3:initial_magmoms:R:1 pbc="T T T"
Si      -1.34136748      -1.44906067       1.24992369       0.00000000
Si       1.34643367      -1.36456444      -1.34815657       0.00000000
Si      -1.38632788       1.34501644      -1.34421792       0.00000000
Si       1.25856541       1.36296802       1.45651324       0.00000000
Si      -2.75669157      -0.07983729       2.45763087       0.00000000
Si       2.63793746       2.69511536       0.07098325       0.00000000
Si      -0.02529837       2.70892928      -2.68420544       0.00000000
Si       2.69459938      -0.00904095      -2.70343189       0.00000000
Si       2.69152593      -2.72122823       0.02030594       0.00000000
Si      -0.02493999      -2.71200809      -2.70279003       0.00000000
