10
Lattice="16.290000149 0.0 0.0 0.0 16.290000149 0.0 0.0 0.0 29.1751946751" Properties=species:S:1:pos:R:3:initial_magmoms:R:1 pbc="T T T"
Si       1.35073423       1.38570886       1.32256992       0.00000000
Si      -1.33577024       1.35962857      -1.36525323       0.00000000
Si       1.38948814      -1.35053875      -1.33260619       0.00000000
Si      -1.34776294      -1.36765954       1.36426128       0.00000000
Si       2.65961945      -0.04225626       2.61885300       0.00000000
Si      -2.66289938       2.70772382       0.02914602       0.00000000
Si       0.04153950      -2.71233389      -2.68318430       0.00000000
Si      -2.68926725       0.00666261      -2.72481731       0.00000000
Si      -2.69107544      -2.72836325       0.01114492       0.00000000
Si       0.02251278       2.71098182      -2.72653864       0.00000000
