10
Lattice="16.2900001489832 0.0 0.0 0.0 16.2900001489832 0.0 0.0 0.0 29.27137083596932" Properties=species:S:1:pos:R:3:initial_magmoms:R:1 pbc="T T T"
Si      -1.23199642       1.93147844       0.49184684       0.00000000
Si       0.84277945      -0.08677683      -2.20720772       0.00000000
Si      -1.65403775      -1.71901856      -0.19079080       0.00000000
Si       1.48947616      -0.31293090       1.86139574       0.00000000
Si       2.09587142      -2.07114320      -2.23659617       0.00000000
Si      -1.07142589      -0.41435244      -3.53677192       0.00000000
Si      -0.43375383      -3.67600143       0.43927546       0.00000000
Si       1.79535350      -3.30315591      -0.25515854       0.00000000
Si      -3.19450568       1.91299515      -0.90843699       0.00000000
Si       2.01855908       1.88702824      -2.68254551       0.00000000
