10
Lattice="16.2900001489832 0.0 0.0 0.0 16.2900001489832 0.0 0.0 0.0 29.27137083596932" Properties=species:S:1:pos:R:3:initial_magmoms:R:1 pbc="T T T"
Si      -1.85956868       0.56130454       1.37268094       0.00000000
Si       1.80796196       1.60492339       0.24397688       0.00000000
Si       0.59448727      -1.97548832       1.33661861       0.00000000
Si       0.21975210       0.97288768      -2.47644579       0.00000000
Si       0.53379072      -2.61215039      -0.94997307       0.00000000
Si       1.36267480      -1.07759980      -2.57225098       0.00000000
Si      -0.50388228       1.75821230       2.89134698       0.00000000
Si       0.75318445       3.20852111       1.54620396       0.00000000
Si       2.25756596      -0.94068235       2.70096013       0.00000000
Si       1.93090259       2.52685595      -1.96124039       0.00000000
