10
Lattice="16.2900001489832 0.0 0.0 0.0 16.2900001489832 0.0 0.0 0.0 29.27137083596932" Properties=species:S:1:pos:R:3:initial_magmoms:R:1 pbc="T T T"
H       -0.46942893      -0.34788436      -1.41421701       0.00000000
Si       2.29659680      -0.26627634      -0.18241918       0.00000000
Si      -0.70227820      -1.97267015       1.05274485       0.00000000
Si      -1.15937560       2.02781180       0.45317936       0.00000000
Si      -3.03375189       1.39807297      -0.81014373       0.00000000
Si      -2.55946853      -2.29982222      -0.32063860       0.00000000
Si       2.17215749      -1.52126936      -2.22078963       0.00000000
Si       3.07291305       1.74848717      -1.03041080       0.00000000
Si       3.00384345      -0.79835499       2.05792373       0.00000000
Si      -1.47776365       1.99868528       2.90240278       0.00000000
