10
Lattice="16.2900001489832 0.0 0.0 0.0 16.2900001489832 0.0 0.0 0.0 29.27137083596932" Properties=species:S:1:pos:R:3:initial_magmoms:R:1 pbc="T T T"
Si      -1.33600807      -1.39878973      -1.33820511       0.00000000
Si      -1.34820928       1.38126169       1.35725492       0.00000000
Si       1.37031481      -1.35979147       1.36782189       0.00000000
Si       1.36894645       1.37274202      -1.38565401       0.00000000
Si      -2.66418065       0.02469564       2.69647868       0.00000000
Si      -2.72419301      -0.10565694      -2.64952155       0.00000000
Si      -2.70200603       2.72290610      -0.02294875       0.00000000
Si       2.72486090       2.70181055       0.00354184       0.00000000
Si       0.05963769      -2.55313661      -2.86669170       0.00000000
Si       2.71533125      -2.71517161      -0.03120328       0.00000000
