10
Lattice="16.2900001489832 0.0 0.0 0.0 16.2900001489832 0.0 0.0 0.0 29.27137083596932" Properties=species:S:1:pos:R:3:initial_magmoms:R:1 pbc="T T T"
Si      -1.74089603      -0.90671770       1.29423366       0.00000000
Si       1.21889926      -1.47151318      -1.37973534       0.00000000
Si       1.79075972       0.77758687       1.35505957       0.00000000
Si      -1.43861878       1.28850643      -1.39677127       0.00000000
H        1.46575792       1.03923685       2.83390777       0.00000000
Si       2.59758713       2.64324800       0.13318474       0.00000000
Si      -3.43466508       0.88449814       1.19242783       0.00000000
Si       2.59587668      -0.09598068      -2.72542807       0.00000000
Si       2.61193862      -2.74723522       0.02438305       0.00000000
Si      -0.12264741       2.64507248      -2.73599503       0.00000000
