10
Lattice="16.2900001489832 0.0 0.0 0.0 16.2900001489832 0.0 0.0 0.0 29.27137083596932" Properties=species:S:1:pos:R:3:initial_magmoms:R:1 pbc="T T T"
Si      -0.78800839       2.22494181      -0.04595605       0.00000000
Si      -1.65747086      -1.46049153       0.91063235       0.00000000
Si       0.75549030      -0.42032615      -2.24212846       0.00000000
Si       1.96250926       0.01848329       1.40028384       0.00000000
H       -0.10644880       2.31487891       2.75335295       0.00000000
Si       2.91578378       2.08092192       0.74811770       0.00000000
Si       1.13680988       3.59603855       0.30597364       0.00000000
Si       2.04338911       1.46844398      -2.82849256       0.00000000
Si      -0.46564558      -3.29795468       1.84863343       0.00000000
Si       3.19450568      -1.91299515       0.90843699       0.00000000
