10
Lattice="16.2900001489832 0.0 0.0 0.0 16.2900001489832 0.0 0.0 0.0 29.27137083596932" Properties=species:S:1:pos:R:3:initial_magmoms:R:1 pbc="T T T"
Si       0.24614190       0.09549198       2.28785034       0.00000000
Si      -1.65827315      -0.74425753      -1.43906840       0.00000000
Si       0.39860001       2.24933951      -0.62763673       0.00000000
Si       1.79227469      -1.53971941      -0.31185718       0.00000000
H        1.75547558      -0.13853016       2.29944181       0.00000000
Si       2.72911259       1.87729220      -1.18578323       0.00000000
Si       3.62836947      -0.05774805      -0.01179636       0.00000000
Si      -0.51370515       2.22462758       2.91999487       0.00000000
Si      -0.93025675      -1.65757430       3.24885872       0.00000000
Si      -0.66862306      -0.93859723      -3.64771042       0.00000000
