10
Lattice="16.2900001489832 0.0 0.0 0.0 16.2900001489832 0.0 0.0 0.0 29.27137083596932" Properties=species:S:1:pos:R:3:initial_magmoms:R:1 pbc="T T T"
H        1.50933367      -0.23402214       0.01159146       0.00000000
Si      -0.24614190      -0.09549198      -2.28785034       0.00000000
Si      -1.17639865      -1.75306628       0.96100838       0.00000000
Si      -0.75984706       2.12913560       0.63214452       0.00000000
Si       0.91528624       1.83977633       2.32471910       0.00000000
Si      -2.35880831      -0.33088248       2.40008439       0.00000000
Si       1.54613278      -1.63521139      -2.59970753       0.00000000
Si       2.90064630       0.24280245       2.01823175       0.00000000
Si      -3.25358544       1.24416505       0.79720578       0.00000000
Si       0.15245811       2.15384753      -2.91548708       0.00000000
