10
Lattice="16.2900001489832 0.0 0.0 0.0 16.2900001489832 0.0 0.0 0.0 29.27137083596932" Properties=species:S:1:pos:R:3:initial_magmoms:R:1 pbc="T T T"
Si      -0.80682742      -1.86566114       1.22187483       0.00000000
Si       1.10379412       1.50848659       1.47586252       0.00000000
Si      -1.37456650       1.33574743      -1.42247154       0.00000000
Si       1.32900337      -1.34625448      -1.46427105       0.00000000
H       -1.13182921      -1.60401115       2.70072303       0.00000000
Si      -2.59758713      -2.64324800      -0.13318474       0.00000000
Si       2.58323564       2.75279826       0.03316446       0.00000000
Si       2.65251701      -2.69514794      -0.05959651       0.00000000
Si      -0.00588069       2.66883959      -2.85849572       0.00000000
Si       2.69962769      -0.02842605      -2.83668855       0.00000000
