10
Lattice="16.2900001489832 0.0 0.0 0.0 16.2900001489832 0.0 0.0 0.0 29.27137083596932" Properties=species:S:1:pos:R:3:initial_magmoms:R:1 pbc="T T T"
Si       0.15195312       2.31876749      -0.18426328       0.00000000
Si      -2.18232245      -0.05496246      -1.07680592       0.00000000
Si       0.91777861      -0.33912522       2.23132733       0.00000000
Si       1.11596275      -1.58306221      -1.47952144       0.00000000
Si      -2.91806845      -1.81760564       0.97775160       0.00000000
Si       0.14680548       2.50810616      -2.58214471       0.00000000
Si      -0.14944446      -3.52706196      -0.78874636       0.00000000
Si      -1.59584986       1.09822294      -3.09638415       0.00000000
Si       3.32198715      -1.56711430      -0.56795241       0.00000000
Si       3.24829119      -0.71117254       1.67318083       0.00000000
