10
Lattice="16.2900001489832 0.0 0.0 0.0 16.2900001489832 0.0 0.0 0.0 29.27137083596932" Properties=species:S:1:pos:R:3:initial_magmoms:R:1 pbc="T T T"
H       -1.26809506       0.79710229       0.22228679       0.00000000
Si      -0.38450916      -0.26551071      -2.30646694       0.00000000
Si       1.51294842       1.78121378       0.55536572       0.00000000
Si      -0.50671674      -2.05444595       1.18414404       0.00000000
Si       1.32669345       1.27907452       2.80887694       0.00000000
Si       1.72048303      -2.91573084       0.06627038       0.00000000
Si      -0.97482619       2.00476145      -2.55582974       0.00000000
Si      -2.07477587      -0.85757077       2.63986785       0.00000000
Si       3.34239852      -1.19754307       0.37069264       0.00000000
Si      -2.11825388      -2.99116983      -0.26481809       0.00000000
