10
Lattice="16.2900001489832 0.0 0.0 0.0 16.2900001489832 0.0 0.0 0.0 29.27137083596932" Properties=species:S:1:pos:R:3:initial_magmoms:R:1 pbc="T T T"
Si       0.45919881      -0.27093528      -2.32151242       0.00000000
Si       1.86658967      -1.13788909       0.95532973       0.00000000
Si      -2.18975069      -0.43929243       0.87029640       0.00000000
Si       0.66844387       2.18577593       0.99850500       0.00000000
Si       1.77580550       0.46529127       2.76851553       0.00000000
Si      -1.18917001       3.04492683      -0.74399043       0.00000000
Si       2.24678198       1.41918481      -2.26551629       0.00000000
Si       2.76061746       2.27706509      -0.11307531       0.00000000
Si       0.67127833      -2.84338695       2.09243467       0.00000000
Si      -1.77919382      -2.60850143       1.89924363       0.00000000
