10
Lattice="16.2900001489832 0.0 0.0 0.0 16.2900001489832 0.0 0.0 0.0 29.27137083596932" Properties=species:S:1:pos:R:3:initial_magmoms:R:1 pbc="T T T"
Si      -1.37024965      -1.30381903      -1.40686990       0.00000000
Si      -1.32664132       1.36967950       1.40605030       0.00000000
Si       0.89684596      -1.79049908       1.28135426       0.00000000
Si       1.37526697       1.38235312      -1.36843659       0.00000000
Si       0.41176233       2.47213784       2.56109859       0.00000000
Si      -2.53910603      -0.16475706       2.80288011       0.00000000
Si       2.69001659      -2.66387114      -0.00441998       0.00000000
Si      -2.71568963      -2.64841193      -0.02973971       0.00000000
Si      -0.89073721      -3.48061917       1.22535813       0.00000000
Si       1.41068143      -0.93261880       3.43379524       0.00000000
