10
Lattice="16.2900001489832 0.0 0.0 0.0 16.2900001489832 0.0 0.0 0.0 29.27137083596932" Properties=species:S:1:pos:R:3:initial_magmoms:R:1 pbc="T T T"
H        0.60817087       0.60750298       1.23437371       0.00000000
Si      -0.91593784      -2.06089679       0.58651046       0.00000000
Si      -1.91485694       1.34385985      -0.28618619       0.00000000
Si       1.83443321       0.40109238      -1.48279983       0.00000000
H        1.86729014      -2.14570253      -0.10081060       0.00000000
Si       0.43981371       1.69046219      -2.90090994       0.00000000
Si      -0.92685214       3.06412459      -1.49957233       0.00000000
H       -1.02483649      -0.59276053       3.37276443       0.00000000
Si      -1.42977331      -2.91877707      -1.56593053       0.00000000
Si      -2.32661927      -1.12827799      -2.84728478       0.00000000
