10
Lattice="16.2900001489832 0.0 0.0 0.0 16.2900001489832 0.0 0.0 0.0 29.27137083596932" Properties=species:S:1:pos:R:3:initial_magmoms:R:1 pbc="T T T"
Si      -1.14292270       2.05048748       0.09580520       0.00000000
Si       2.32464818       0.20766492       0.34496311       0.00000000
Si      -0.83704537      -0.93973753      -2.02074909       0.00000000
Si      -0.82888408      -1.53455059       1.62227791       0.00000000
Si      -1.36267480       1.07759980       2.57225098       0.00000000
Si       2.99745777      -1.63512505      -0.96686265       0.00000000
Si       2.51240672       2.51419862      -0.19049808       0.00000000
Si      -3.06615270      -1.31258305      -1.32631508       0.00000000
Si       0.56822779       3.60445575       0.61101059       0.00000000
Si      -3.08765550      -1.91161523       0.94663613       0.00000000
