10
Lattice="16.2900001489832 0.0 0.0 0.0 16.2900001489832 0.0 0.0 0.0 29.27137083596932" Properties=species:S:1:pos:R:3:initial_magmoms:R:1 pbc="T T T"
Si       0.06069654       0.63666208       2.28659168       0.00000000
Si       0.82888408       1.53455059      -1.62227791       0.00000000
Si      -2.25877142      -0.37706463      -0.67564178       0.00000000
Si       1.22080519      -2.10844730      -0.27078945       0.00000000
Si      -0.53379072       2.61215039       0.94997307       0.00000000
Si      -2.47617776      -2.61718400       0.03058858       0.00000000
Si      -0.00816129       0.59481307      -3.64302700       0.00000000
Si      -2.23726862       0.22196754      -2.94859300       0.00000000
Si       3.15353226       1.74221552      -1.27731481       0.00000000
Si      -0.49410828      -3.73412415      -0.83604889       0.00000000
