10
Lattice="16.2900001489832 0.0 0.0 0.0 16.2900001489832 0.0 0.0 0.0 29.27137083596932" Properties=species:S:1:pos:R:3:initial_magmoms:R:1 pbc="T T T"
Si       1.38818494      -1.29313279       1.31131643       0.00000000
Si      -1.48739104      -1.28619325      -1.28717750       0.00000000
Si      -1.33649677       1.47774736       1.26342262       0.00000000
Si       1.78670351       0.88446556      -1.36254280       0.00000000
Si       0.11157021       1.17382483      -3.05511737       0.00000000
Si       2.78383071      -2.44747967      -0.21717015       0.00000000
Si       0.01024641      -2.62531434       2.65145346       0.00000000
Si      -2.38216817       0.28885428      -2.89005611       0.00000000
Si      -2.70013431       0.09619245       2.64677004       0.00000000
Si       2.72419301       0.10565694       2.64952155       0.00000000
