10
Lattice="16.2900001489832 0.0 0.0 0.0 16.2900001489832 0.0 0.0 0.0 29.27137083596932" Properties=species:S:1:pos:R:3:initial_magmoms:R:1 pbc="T T T"
Si       1.18465768      -1.38049606      -1.49210813       0.00000000
Si       1.41985270       1.33685515       1.34405939       0.00000000
Si      -1.79030360       1.05955048      -1.15188699       0.00000000
Si      -1.34069959      -1.48605526       1.30509627       0.00000000
H        2.45975744      -0.71519617      -2.02475926       0.00000000
Si       2.37951290      -2.84156247       0.02608079       0.00000000
Si      -0.04150692       2.60276540       2.72733071       0.00000000
Si       2.64300365      -0.13776453       2.78692722       0.00000000
Si       3.10879992       2.30637080      -0.08828245       0.00000000
Si       0.08905743      -1.41530779      -3.62315174       0.00000000
