10
Lattice="16.2900001489832 0.0 0.0 0.0 16.2900001489832 0.0 0.0 0.0 29.27137083596932" Properties=species:S:1:pos:R:3:initial_magmoms:R:1 pbc="T T T"
Si      -1.33563340      -1.32631536       1.36108947       0.00000000
Si       1.33853302      -1.38122895      -1.36006497       0.00000000
Si      -1.37334475       1.34322145      -1.38640921       0.00000000
Si       1.32600601       1.33619394       1.45964618       0.00000000
Si       2.70234812       2.67823909       0.04891246       0.00000000
Si       0.05898609      -2.61568516       2.77919958       0.00000000
Si      -2.71836119       2.69860159       0.01261596       0.00000000
Si       2.70174539      -0.01514662      -2.73376163       0.00000000
Si       2.69141753      -2.74449019       0.01124021       0.00000000
Si      -0.05615163      -2.71445143      -2.73795621       0.00000000
