10
Lattice="16.2900001489832 0.0 0.0 0.0 16.2900001489832 0.0 0.0 0.0 29.27137083596932" Properties=species:S:1:pos:R:3:initial_magmoms:R:1 pbc="T T T"
Si      -1.32600601      -1.33619394      -1.45964618       0.00000000
Si       1.37634211       1.34204515      -1.41073372       0.00000000
Si       1.51156540      -1.28018778       1.34654160       0.00000000
Si      -1.39013974       1.40648839       1.35198608       0.00000000
Si      -2.66163941      -2.66250930      -0.09855671       0.00000000
Si       2.73753453      -2.71299201      -0.07879853       0.00000000
Si      -0.02984328       2.83205888       2.62810076       0.00000000
Si      -2.71365338       2.75538185      -0.05268847       0.00000000
Si       2.77925322       2.71136627      -0.04141899       0.00000000
Si       0.01156590       2.70330272      -2.81066630       0.00000000
