10
Lattice="16.2900001489832 0.0 0.0 0.0 16.2900001489832 0.0 0.0 0.0 29.27137083596932" Properties=species:S:1:pos:R:3:initial_magmoms:R:1 pbc="T T T"
Si      -1.26938197       1.41459103       1.32394410       0.00000000
Si       1.31597137       1.35656605      -1.33922376       0.00000000
Si      -1.39834990      -1.40581072      -1.31940704       0.00000000
Si       1.43861878      -1.28850643       1.39677127       0.00000000
Si      -1.99604630      -0.40400829       2.58919911       0.00000000
Si      -0.30227724      -2.19522413       2.69100493       0.00000000
Si       2.66163941       2.69048900       0.10748447       0.00000000
Si       2.66418065      -0.02469564      -2.69647868       0.00000000
Si      -0.03782538       2.69821046      -2.71942744       0.00000000
Si       2.65751804      -2.76001961       0.01703594       0.00000000
