10
Lattice="16.2900001489832 0.0 0.0 0.0 16.2900001489832 0.0 0.0 0.0 29.27137083596932" Properties=species:S:1:pos:R:3:initial_magmoms:R:1 pbc="T T T"
Si       1.39040038       1.34941474      -1.35896730       0.00000000
Si      -1.35459496       1.36990756       1.38556034       0.00000000
Si       1.36477621      -1.36125757       1.39993258       0.00000000
Si      -1.38269521      -1.31971807      -1.45059840       0.00000000
Si      -2.71091666      -2.69627521      -0.03538909       0.00000000
Si      -2.70138701       2.72070695      -0.00064397       0.00000000
Si       2.72222192      -2.70344770       0.00049761       0.00000000
Si       2.72236853       2.73175157      -0.00441998       0.00000000
Si      -2.72521928       0.05207913       2.75797783       0.00000000
Si       0.03401352      -2.66900249      -2.81468233       0.00000000
