10
Lattice="16.2900001489832 0.0 0.0 0.0 16.2900001489832 0.0 0.0 0.0 29.27137083596932" Properties=species:S:1:pos:R:3:initial_magmoms:R:1 pbc="T T T"
Si      -1.47551563      -1.12316293      -1.40043312       0.00000000
Si       1.25341777      -1.43553997       1.38308398       0.00000000
Si      -1.49172418       1.27975870       1.32666049       0.00000000
Si       1.15846336       1.45412686      -1.47788517       0.00000000
Si      -0.01005093      -2.16780806      -2.90029816       0.00000000
Si      -2.41784327       0.58979575      -2.74917008       0.00000000
Si      -0.80594776       2.37096065      -2.75590249       0.00000000
Si       2.58538592      -0.05320314       2.73763130       0.00000000
Si       2.58346370      -2.75553498      -0.04193417       0.00000000
Si      -0.13040145       2.65955429       2.70411558       0.00000000
