10
Lattice="16.2900001489832 0.0 0.0 0.0 16.2900001489832 0.0 0.0 0.0 29.27137083596932" Properties=species:S:1:pos:R:3:initial_magmoms:R:1 pbc="T T T"
H        1.27509976       0.66529990      -0.53265114       0.00000000
Si      -1.18465768       1.38049606       1.49210813       0.00000000
Si      -1.09560025      -0.03481173      -2.13104361       0.00000000
Si       1.19485522      -1.46106640       1.51818892       0.00000000
Si       1.62132742      -2.28959210      -2.26551629       0.00000000
Si      -0.90784171       2.27172197      -2.66650480       0.00000000
Si      -2.52535727      -0.10555920       2.79720440       0.00000000
Si       2.18310437      -3.13740516       0.16801767       0.00000000
Si      -2.97496128       2.44004654       0.34022114       0.00000000
Si       2.71052570      -0.09471006       2.79212581       0.00000000
