10
Lattice="16.2900001489832 0.0 0.0 0.0 16.2900001489832 0.0 0.0 0.0 29.27137083596932" Properties=species:S:1:pos:R:3:initial_magmoms:R:1 pbc="T T T"
Si       1.25217973      -1.33744159      -1.48690953       0.00000000
Si      -1.32986674      -1.38916234       1.38073056       0.00000000
Si       1.39468465       1.33322248       1.37789124       0.00000000
Si      -1.22315095       1.47461968      -1.44286783       0.00000000
Si       2.02074194       0.50275827      -2.90304675       0.00000000
Si       0.46579626       2.44413533      -2.87520967       0.00000000
Si      -2.68451057       2.74052993      -0.05959651       0.00000000
Si      -2.64300365       0.13776453      -2.78692722       0.00000000
Si       2.74887237      -2.69363297      -0.08869811       0.00000000
Si       0.05615163       2.71445143       2.73795621       0.00000000
