10
Lattice="16.2900001489832 0.0 0.0 0.0 16.2900001489832 0.0 0.0 0.0 29.27137083596932" Properties=species:S:1:pos:R:3:initial_magmoms:R:1 pbc="T T T"
Si      -0.66391525      -1.36461331      -1.75950210       0.00000000
Si       0.79316011      -1.01649601       1.95889868       0.00000000
Si      -1.24085818       1.97493446      -0.28208820       0.00000000
Si       1.77036464       1.03053799      -1.18935434       0.00000000
H        2.54676233      -1.49566636      -0.56786459       0.00000000
Si       0.11021814       2.31536288      -2.20744189       0.00000000
Si       2.85501801      -1.62453655       0.92245798       0.00000000
Si      -0.82950310       0.44253414      -3.39085414       0.00000000
Si      -2.84967489      -1.86483035      -1.09881799       0.00000000
Si       1.29676546       2.77858533       2.05605036       0.00000000
