10
Lattice="16.2900001489832 0.0 0.0 0.0 16.2900001489832 0.0 0.0 0.0 29.27137083596932" Properties=species:S:1:pos:R:3:initial_magmoms:R:1 pbc="T T T"
Si      -1.33853302       1.38122895       1.36006497       0.00000000
Si       1.35288451      -1.36326124       1.37130518       0.00000000
Si       1.36321237       1.36608233      -1.37369665       0.00000000
Si      -1.39468465      -1.33322248      -1.37789124       0.00000000
Si      -2.67416642       0.05491359       2.72115445       0.00000000
Si       2.70225038      -2.72769536      -0.01577727       0.00000000
Si      -2.71187777       2.72445040      -0.02634423       0.00000000
Si       2.72126081       2.71727791       0.00954247       0.00000000
Si       2.53361630      -0.02137248      -2.89309741       0.00000000
Si      -2.61783560       0.14139720      -2.82075907       0.00000000
