10
Lattice="16.2900001489832 0.0 0.0 0.0 16.2900001489832 0.0 0.0 0.0 29.27137083596932" Properties=species:S:1:pos:R:3:initial_magmoms:R:1 pbc="T T T"
Si       0.95785201       1.70781201      -1.35529374       0.00000000
Si       0.25189227       0.90012025       2.24426527       0.00000000
Si       1.53547912      -1.89527636      -0.03392552       0.00000000
Si      -1.82073332      -0.96387931      -1.38228194       0.00000000
H       -3.04699566      -0.75746872       1.33489160       0.00000000
Si       2.18382113       0.27500778      -2.78063387       0.00000000
Si      -0.56715265      -2.45109116      -2.78982508       0.00000000
Si       3.44476488      -1.12643722      -1.34276559       0.00000000
Si      -3.65516652      -1.36497169       0.10051789       0.00000000
Si       2.42191577       3.09133215      -0.08643836       0.00000000
