10
Lattice="16.2900001489832 0.0 0.0 0.0 16.2900001489832 0.0 0.0 0.0 29.27137083596932" Properties=species:S:1:pos:R:3:initial_magmoms:R:1 pbc="T T T"
Si       1.37793853       1.33218155      -1.34013703       0.00000000
Si       1.35096229      -1.36611036       1.35552791       0.00000000
Si      -1.34858395       1.34985620       1.37513973       0.00000000
Si      -1.37805256      -1.35910566      -1.35327402       0.00000000
Si      -0.01024641       2.62531434      -2.65145346       0.00000000
Si       0.00131949      -2.69126930      -2.67612630       0.00000000
Si       2.70728399      -0.00435269       2.71158271       0.00000000
Si      -2.71038072       2.72150679      -0.00468342       0.00000000
Si       2.72140742      -2.72023292      -0.01516257       0.00000000
Si       2.71394660       2.73097128      -0.00193191       0.00000000
