10
Lattice="16.2900001489832 0.0 0.0 0.0 16.2900001489832 0.0 0.0 0.0 29.27137083596932" Properties=species:S:1:pos:R:3:initial_magmoms:R:1 pbc="T T T"
Si      -0.18625497      -0.50213925       2.25351122       0.00000000
Si       2.04685644      -0.73863748      -0.89090344       0.00000000
Si      -0.67608404       2.23907681      -0.37054628       0.00000000
Si      -1.51294842      -1.78121378      -0.55536572       0.00000000
H       -2.78104349      -0.98411149      -0.33307893       0.00000000
H       -2.28437767       2.28294578      -0.03014951       0.00000000
Si       1.47295973      -2.31456467       2.17073559       0.00000000
Si       1.82945010      -2.97875685      -0.18467308       0.00000000
Si      -1.15803819       2.15143661      -2.66293369       0.00000000
Si       2.06835924      -0.13960530      -3.16385466       0.00000000
