10
Lattice="16.2900001489832 0.0 0.0 0.0 16.2900001489832 0.0 0.0 0.0 29.27137083596932" Properties=species:S:1:pos:R:3:initial_magmoms:R:1 pbc="T T T"
Si      -1.06144012       0.44364186       2.04173666       0.00000000
Si       1.91876654       1.29982798       0.57055756       0.00000000
Si       0.65713861      -2.28745811      -0.19333740       0.00000000
Si      -1.85153771       0.67564405      -1.36293357       0.00000000
H        1.36586764      -0.28745334      -3.16142514       0.00000000
Si      -2.95495716      -0.89368570       1.70713562       0.00000000
Si      -3.39016080      -0.87765634      -0.55448758       0.00000000
Si       2.92036860      -1.98811307      -0.47053729       0.00000000
Si       1.82006543       3.29962098      -0.66381615       0.00000000
Si       0.08021196      -0.50099895       3.84915599       0.00000000
