10
Lattice="16.2900001489832 0.0 0.0 0.0 16.2900001489832 0.0 0.0 0.0 29.27137083596932" Properties=species:S:1:pos:R:3:initial_magmoms:R:1 pbc="T T T"
Si       1.14165208      -0.94464082       1.80741934       0.00000000
Si      -0.15894153       2.24541362       0.64522883       0.00000000
Si      -1.89351704      -1.33732756      -0.33460104       0.00000000
Si       1.06144012      -0.44364186      -2.04173666       0.00000000
H       -3.16179129      -0.91507447       0.40052017       0.00000000
H       -1.77450230      -2.03120012       2.11415403       0.00000000
Si       2.98020666       0.85618612      -1.47117910       0.00000000
Si      -0.79009759       0.23200218      -3.40467023       0.00000000
Si       0.50283972      -3.22318830       1.38916072       0.00000000
Si      -1.34635222       1.99922285       2.64267790       0.00000000
