10
Lattice="16.2900001489832 0.0 0.0 0.0 16.2900001489832 0.0 0.0 0.0 29.27137083596932" Properties=species:S:1:pos:R:3:initial_magmoms:R:1 pbc="T T T"
Si      -1.14165208       0.94464082      -1.80741934       0.00000000
Si      -0.97889869       1.17986842       1.83680779       0.00000000
Si       2.35925792       0.44545005      -0.01527966       0.00000000
Si      -0.63881236      -2.27854748      -0.41825862       0.00000000
H       -2.91615438      -1.08655930       0.30673469       0.00000000
H        1.85346221      -2.57347793       0.89877744       0.00000000
Si       1.17190261      -2.66341502      -1.90053157       0.00000000
Si      -1.30059361       3.19005444      -1.16219051       0.00000000
Si       2.41147714       2.52760529      -1.13763183       0.00000000
Si       3.09672088      -1.29231829      -1.54860187       0.00000000
