10
Lattice="16.2900001489832 0.0 0.0 0.0 16.2900001489832 0.0 0.0 0.0 29.27137083596932" Properties=species:S:1:pos:R:3:initial_magmoms:R:1 pbc="T T T"
Si      -1.53862309      -1.55330038       0.80844599       0.00000000
Si      -0.17166402      -0.21173742      -2.37475704       0.00000000
Si       1.85153771      -0.67564405       1.36293357       0.00000000
Si      -1.29617902       1.85218931       0.93311276       0.00000000
H       -1.50270364      -2.93913957       0.16195849       0.00000000
Si      -2.21097656       1.00848133      -2.45531186       0.00000000
Si       0.79009759      -0.23200218       3.40467023       0.00000000
Si      -1.10341945      -1.56932974       3.07006919       0.00000000
Si      -1.82679320       3.02405934      -1.07144926       0.00000000
H        3.21740535      -0.96309739      -1.79849157       0.00000000
