10
Lattice="16.2900001489832 0.0 0.0 0.0 16.2900001489832 0.0 0.0 0.0 29.27137083596932" Properties=species:S:1:pos:R:3:initial_magmoms:R:1 pbc="T T T"
Si       1.35868375       1.35081568       1.36315018       0.00000000
Si       1.33649677      -1.47774736      -1.26342262       0.00000000
Si      -1.36363754      -1.38155491       1.38334742       0.00000000
Si      -1.34030212       1.37205784      -1.44896505       0.00000000
Si      -0.15089427      -2.76394062      -2.55060012       0.00000000
Si       2.70096347       2.67691943      -0.09333762       0.00000000
Si      -2.74432746       2.67903713      -0.04493155       0.00000000
Si      -0.01371618       2.69008175       2.75017408       0.00000000
Si       2.71248050       0.00917127       2.74335385       0.00000000
Si      -2.72717554      -2.74945881      -0.00451657       0.00000000
