10
Lattice="16.2900001489832 0.0 0.0 0.0 16.2900001489832 0.0 0.0 0.0 29.27137083596932" Properties=species:S:1:pos:R:3:initial_magmoms:R:1 pbc="T T T"
Si      -1.30170133      -1.49788180      -1.23264670       0.00000000
Si       1.72669115       0.62240833      -1.47457458       0.00000000
Si      -1.42817689       1.90900883      -0.08983384       0.00000000
Si       0.62563375      -1.33665967       1.88413960       0.00000000
H        1.78250069       1.77795578       1.10180367       0.00000000
Si       0.39196998       0.60690025      -3.45554387       0.00000000
Si       2.09075636       1.64908559       2.59212624       0.00000000
Si      -1.83231551      -0.32601177      -3.23720871       0.00000000
Si      -0.76426165       3.27362214       1.66966826       0.00000000
Si       2.32795505       2.91213075      -0.93703512       0.00000000
