10
Lattice="16.2900001489832 0.0 0.0 0.0 16.2900001489832 0.0 0.0 0.0 29.27137083596932" Properties=species:S:1:pos:R:3:initial_magmoms:R:1 pbc="T T T"
Si       1.65663111      -1.37792224      -0.93279077       0.00000000
Si       0.38450916       0.26551071       2.30646694       0.00000000
Si      -0.59031703       2.27027216      -0.24936281       0.00000000
Si      -2.05543964      -0.71547310      -0.95734945       0.00000000
H       -0.88358590       1.06261300       2.52875373       0.00000000
H       -0.89857270       2.39914235      -1.73968538       0.00000000
Si      -3.24285033      -0.96166387       1.04009962       0.00000000
Si       3.46729395       0.01423746      -1.58993305       0.00000000
Si       1.60441189      -3.46007748       0.18956140       0.00000000
Si      -1.73374472      -2.72565911       2.04164884       0.00000000
