10
Lattice="16.2900001489832 0.0 0.0 0.0 16.2900001489832 0.0 0.0 0.0 29.27137083596932" Properties=species:S:1:pos:R:3:initial_magmoms:R:1 pbc="T T T"
Si      -1.61153713      -0.93672388      -1.44896213       0.00000000
Si       0.50671674       2.05444595      -1.18414404       0.00000000
Si      -1.56805912       1.19687518       1.45572381       0.00000000
Si       1.22077442      -1.62227224       1.46675912       0.00000000
Si       2.22719977      -0.86128489      -1.11787365       0.00000000
H       -0.76137832       2.85154824      -0.96185725       0.00000000
Si      -2.73657342      -2.42505974       0.03331082       0.00000000
Si      -0.07853409       2.48241683       2.80386949       0.00000000
Si       2.59925523      -0.27916173       2.83641047       0.00000000
Si       0.12220758       1.78893524      -3.49061097       0.00000000
