10
Lattice="16.2900001489832 0.0 0.0 0.0 16.2900001489832 0.0 0.0 0.0 29.27137083596932" Properties=species:S:1:pos:R:3:initial_magmoms:R:1 pbc="T T T"
Si       0.82823736       0.18371862      -1.28076883       0.00000000
H       -0.60619978       2.13351761      -0.30442226       0.00000000
Si      -1.69116266      -0.91932616       1.99308764       0.00000000
Si       2.49660542      -1.39013974      -0.91309114       0.00000000
Si       0.24822702      -2.26782866       2.00102018       0.00000000
H       -2.97981570       0.59886928      -0.03413042       0.00000000
Si      -1.08989875       1.37039626       2.53062709       0.00000000
Si      -0.59463388      -0.43766343      -3.05335523       0.00000000
Si      -3.02588382      -0.93483424       0.01211835       0.00000000
Si      -1.56522466       2.76869730       0.64885848       0.00000000
