10
Lattice="16.2900001489832 0.0 0.0 0.0 16.2900001489832 0.0 0.0 0.0 29.27137083596932" Properties=species:S:1:pos:R:3:initial_magmoms:R:1 pbc="T T T"
Si      -1.98404057      -1.03418695       0.59573094       0.00000000
Si      -0.48705471       2.27815652      -0.41852206       0.00000000
Si       1.49113774      -0.11476305       1.87207979       0.00000000
Si      -0.63447922      -1.46421037      -1.90893245       0.00000000
H        0.07654671      -2.28459107       1.18909090       0.00000000
H        2.45016263      -0.74994274       0.91879906       0.00000000
H        2.26199684       1.28177866      -1.00365676       0.00000000
H       -1.49921758       2.52386022       0.69703915       0.00000000
H       -3.03055905      -0.01352070       0.13295057       0.00000000
Si      -1.95525614      -0.70903855       2.96969766       0.00000000
