10
Lattice="16.2900001489832 0.0 0.0 0.0 16.2900001489832 0.0 0.0 0.0 29.27137083596932" Properties=species:S:1:pos:R:3:initial_magmoms:R:1 pbc="T T T"
Si      -0.95902489       0.63517969       0.95328073       0.00000000
H        0.60619978      -2.13351761       0.30442226       0.00000000
Si       0.94200184       2.13177458      -0.91806727       0.00000000
Si       1.43443714      -1.94979899      -0.97634657       0.00000000
Si       2.30154733       0.21092292      -1.24874595       0.00000000
Si      -2.45016263       0.74994274      -0.91879906       0.00000000
H       -0.18816579       2.03172140      -1.92245582       0.00000000
H       -2.37361592      -1.53464833       0.27029184       0.00000000
Si      -0.48369897      -0.76312135       2.83504935       0.00000000
Si       0.03404610       2.74476729       1.19336452       0.00000000
