10
Lattice="16.2900001489832 0.0 0.0 0.0 16.2900001489832 0.0 0.0 0.0 29.27137083596932" Properties=species:S:1:pos:R:3:initial_magmoms:R:1 pbc="T T T"
Si       1.35306717       1.35041843      -1.36518746       0.00000000
Si      -1.22596912       1.43280423       1.42534013       0.00000000
Si       1.26094375      -1.40144500       1.43786828       0.00000000
Si      -1.37212300      -1.36769212      -1.36960744       0.00000000
Si      -2.18382113      -0.27500778       2.78063387       0.00000000
Si      -0.64834201      -2.17028414       2.74670835       0.00000000
Si       2.72318466       2.68365209       0.02242187       0.00000000
Si       2.69052973      -0.01599678      -2.74158586       0.00000000
Si       2.68667063      -2.75252133       0.04867829       0.00000000
Si      -0.00374670       2.71284703      -2.73137016       0.00000000
