10
Lattice="16.2900001489832 0.0 0.0 0.0 16.2900001489832 0.0 0.0 0.0 29.27137083596932" Properties=species:S:1:pos:R:3:initial_magmoms:R:1 pbc="T T T"
H       -1.01216287       0.24570370       1.11556121       0.00000000
Si      -1.36748035      -0.12478140      -1.90735180       0.00000000
Si       0.48705471      -2.27815652       0.41852206       0.00000000
Si       1.24074415       2.03530520       0.41395573       0.00000000
H        2.74905156      -0.99637786      -0.58513470       0.00000000
H       -2.54350433      -2.29167722       0.55147263       0.00000000
Si       1.56239020       1.65060870       2.73737079       0.00000000
Si      -3.45753624       0.48220518      -0.97333162       0.00000000
Si      -1.49698585      -3.31234347       1.01425300       0.00000000
Si      -0.44546634       1.26889653      -3.54227494       0.00000000
