10
Lattice="16.2900001489832 0.0 0.0 0.0 16.2900001489832 0.0 0.0 0.0 29.27137083596932" Properties=species:S:1:pos:R:3:initial_magmoms:R:1 pbc="T T T"
Si      -0.76856221      -1.84019987       1.41613721       0.00000000
Si      -1.55494567       1.94137706       0.02783707       0.00000000
Si       1.90755902       0.80909173       1.38784058       0.00000000
Si       0.23705208      -0.50150394      -2.48156828       0.00000000
H        1.97177420      -0.87799843      -2.04460525       0.00000000
H       -2.20398815      -1.08018991      -1.90863974       0.00000000
Si      -2.02074194      -0.50275827       2.90304675       0.00000000
Si      -3.24389289       0.97186141       1.46017892       0.00000000
Si       0.73715509       2.19654654       2.90724133       0.00000000
Si       3.17992206       2.25546651       0.04970279       0.00000000
