10
Lattice="16.2900001489832 0.0 0.0 0.0 16.2900001489832 0.0 0.0 0.0 29.27137083596932" Properties=species:S:1:pos:R:3:initial_magmoms:R:1 pbc="T T T"
Si      -1.35306717      -1.35041843       1.36518746       0.00000000
Si       1.33746256      -1.36641521      -1.37639840       0.00000000
Si      -1.35681387       1.36242860      -1.36618269       0.00000000
Si       1.37011749       1.33323366       1.38760933       0.00000000
Si      -2.57903629       0.08238580       2.79052760       0.00000000
Si       2.69271726      -0.00530425      -2.72220822       0.00000000
Si      -2.71425958       2.70461872       0.03325228       0.00000000
Si       2.70306142      -2.72208532       0.01568945       0.00000000
Si       2.72218588       2.70365761       0.00620553       0.00000000
Si      -2.72519017      -2.71811056      -0.00441998       0.00000000
