10
Lattice="16.2900001489832 0.0 0.0 0.0 16.2900001489832 0.0 0.0 0.0 29.27137083596932" Properties=species:S:1:pos:R:3:initial_magmoms:R:1 pbc="T T T"
Si       1.32359509      -1.38167546      -1.41377794       0.00000000
Si      -1.39632831       1.30595139      -1.43210182       0.00000000
Si      -1.30327820      -1.58350856       1.31372839       0.00000000
Si       1.05181273       1.88696194       1.19690635       0.00000000
Si      -2.35994861       0.14852733       2.46464942       0.00000000
Si      -2.56935982       2.81482406      -0.05696209       0.00000000
Si       2.67823892      -2.77627866      -0.01460641       0.00000000
Si       2.65528631      -0.03959122      -2.83311744       0.00000000
Si      -0.04425993       2.67637535      -2.81350562       0.00000000
Si      -0.64195633       3.67817778       1.09510053       0.00000000
