10
Lattice="16.2900001489832 0.0 0.0 0.0 16.2900001489832 0.0 0.0 0.0 29.27137083596932" Properties=species:S:1:pos:R:3:initial_magmoms:R:1 pbc="T T T"
Si      -1.10646894       1.61800426       1.33644298       0.00000000
Si      -1.55114359      -1.20445003      -1.33647225       0.00000000
Si       1.21235720       1.48652767      -1.40853836       0.00000000
Si       1.73399558      -0.78149647       1.60102690       0.00000000
Si      -1.16298058       0.38561688       3.38786846       0.00000000
Si       1.14187037       0.66500668       3.44728934       0.00000000
Si       0.73809013       3.43456734       1.15267731       0.00000000
Si      -0.17609816      -2.51335154      -2.82571178       0.00000000
Si       2.55799266       0.21906792      -2.84587976       0.00000000
Si       2.73457626       2.70272279      -0.01325993       0.00000000
