10
Lattice="16.2900001489832 0.0 0.0 0.0 16.2900001489832 0.0 0.0 0.0 29.27137083596932" Properties=species:S:1:pos:R:3:initial_magmoms:R:1 pbc="T T T"
Si      -1.74948086      -1.33291297      -0.80958757       0.00000000
Si       1.62228853      -0.05185107      -1.69738825       0.00000000
Si      -0.69918147       2.24650505       0.30374902       0.00000000
Si       0.73280566      -1.21376791       1.90861046       0.00000000
Si       1.23132853       0.67911382       3.19652151       0.00000000
H       -1.99770788       0.93491569      -2.81060776       0.00000000
Si      -0.77542681      -2.15176241      -2.75092343       0.00000000
Si       2.67740813      -2.28947807       0.99276781       0.00000000
Si       2.67226049      -2.10013940      -1.40511361       0.00000000
Si       0.01104462       2.63609669       2.56645525       0.00000000
