10
Lattice="16.2900001489832 0.0 0.0 0.0 16.2900001489832 0.0 0.0 0.0 29.27137083596932" Properties=species:S:1:pos:R:3:initial_magmoms:R:1 pbc="T T T"
Si       1.33222879      -1.33944526       1.36922691       0.00000000
Si      -1.33902172      -1.33020883      -1.38481977       0.00000000
Si       1.39085650       1.32846580      -1.38231414       0.00000000
Si      -1.36578619       1.36096435       1.39273182       0.00000000
Si       2.68493411      -2.71808426      -0.00374674       0.00000000
Si       0.00324171       2.74558179      -2.66801813       0.00000000
Si      -2.72262592      -2.70415631      -0.03026660       0.00000000
Si      -2.64076704       0.06214635      -2.78528802       0.00000000
Si      -0.01321119      -2.68403816       2.74635710       0.00000000
Si       2.72332964       2.71661816      -0.00705440       0.00000000
