10
Lattice="16.2900001489832 0.0 0.0 0.0 16.2900001489832 0.0 0.0 0.0 29.27137083596932" Properties=species:S:1:pos:R:3:initial_magmoms:R:1 pbc="T T T"
Si       0.02150280       0.59903218      -2.27295122       0.00000000
Si      -2.04685644       0.73863748       0.89090344       0.00000000
Si      -0.21740634      -2.24011937       0.70623036       0.00000000
Si       2.25877142       0.37706463       0.67564178       0.00000000
Si      -0.57389671      -1.57592719       3.06163903       0.00000000
Si      -3.55980486      -1.04257630       0.33553772       0.00000000
Si       3.08765550       1.91161523      -0.94663613       0.00000000
Si       1.76466314      -3.35705952      -0.16040711       0.00000000
Si       1.72498070       2.98921503       1.62561485       0.00000000
Si      -0.47702007      -1.29384955      -3.56086226       0.00000000
