10
Lattice="16.2900001489832 0.0 0.0 0.0 16.2900001489832 0.0 0.0 0.0 29.27137083596932" Properties=species:S:1:pos:R:3:initial_magmoms:R:1 pbc="T T T"
Si       1.35568639       1.19690776       1.51866604       0.00000000
Si       1.85956868      -0.56130454      -1.37268094       0.00000000
Si      -1.51542125       1.25574724      -1.34876623       0.00000000
Si      -1.28832235      -1.48652767       1.40139615       0.00000000
Si       2.45405594      -2.53679285      -0.03606233       0.00000000
Si      -2.58835250      -0.57280528      -2.47793863       0.00000000
Si       2.61275312       2.64721657       0.17352303       0.00000000
Si      -0.02368566       2.52907139       2.84151832       0.00000000
Si      -2.77446396      -0.17189208       2.75089123       0.00000000
Si      -2.09852343      -3.31402134       0.14611888       0.00000000
