10
Lattice="16.2900001489832 0.0 0.0 0.0 16.2900001489832 0.0 0.0 0.0 29.27137083596932" Properties=species:S:1:pos:R:3:initial_magmoms:R:1 pbc="T T T"
Si      -1.05667041       1.73203589       1.15092103       0.00000000
Si      -1.55529102      -1.19563714      -1.33038380       0.00000000
Si       1.30327820       1.58350856      -1.31372839       0.00000000
Si       0.77256629      -1.99536212       1.23443225       0.00000000
Si       0.70483247       2.49483633       2.54944859       0.00000000
Si      -0.12956415      -2.54671346      -2.71957379       0.00000000
Si       2.62687330       0.20183310      -2.72750633       0.00000000
Si       2.76905242      -2.72720666       0.06849501       0.00000000
Si      -1.76603475      -0.94301182       3.39679623       0.00000000
Si      -2.81623477       0.20580786      -2.76825208       0.00000000
