10
Lattice="16.2900001489832 0.0 0.0 0.0 16.2900001489832 0.0 0.0 0.0 29.20513569536355" Properties=species:S:1:pos:R:3:initial_magmoms:R:1 pbc="T T T"
Si      -1.29819898       0.52414704      -1.90619000       0.00000000
Si      -1.67371607       0.80777224       1.74553255       0.00000000
Si       1.59304798       1.78316858      -0.94604196       0.00000000
Si       0.03409497      -2.55880064      -0.32864539       0.00000000
H        1.63916497      -1.02931624      -2.08904336       0.00000000
Si      -1.87354550       2.69143382      -1.08955600       0.00000000
Si      -2.54726732      -1.28045917       2.39593092       0.00000000
Si       3.11259386      -1.13500576      -1.73230262       0.00000000
Si       0.27989478       3.69035292      -0.58474523       0.00000000
Si       3.77598620      -0.17207127       0.31839439       0.00000000
