10
Lattice="16.2900001489832 0.0 0.0 0.0 16.2900001489832 0.0 0.0 0.0 29.20513569536355" Properties=species:S:1:pos:R:3:initial_magmoms:R:1 pbc="T T T"
H       -0.20013894      -1.26802176      -0.83906355       0.00000000
Si       1.34364808       1.37660275      -1.18298323       0.00000000
Si      -2.08806851       0.78724684       0.56558666       0.00000000
Si       0.84176947      -0.61240952       2.08206333       0.00000000
Si      -2.56567502      -1.39541444       1.17571115       0.00000000
Si       2.08938800      -2.30467664       1.05763478       0.00000000
Si       1.26017812       3.10482516       0.34587642       0.00000000
Si       0.40666356       1.17144649      -3.26346948       0.00000000
Si      -2.23966325      -2.60182253      -0.86070455       0.00000000
Si      -1.08501175      -1.59860548       3.00748646       0.00000000
