10
Lattice="16.2900001489832 0.0 0.0 0.0 16.2900001489832 0.0 0.0 0.0 29.20513569536355" Properties=species:S:1:pos:R:3:initial_magmoms:R:1 pbc="T T T"
Si      -0.87355126      -2.08823141       0.65039837       0.00000000
Si      -1.74014669       1.25773462      -1.12314190       0.00000000
Si       0.68235553       1.00281241       2.16298200       0.00000000
Si       1.67371607      -0.80777224      -1.74553255       0.00000000
Si      -0.19982943       1.88366159      -2.83508855       0.00000000
Si       1.15751854      -3.18575388       1.31658212       0.00000000
Si       0.37551708      -0.28362519      -3.65172255       0.00000000
Si       1.54841338      -0.71956189       3.58414187       0.00000000
Si      -2.40756428       3.35424135      -0.24032906       0.00000000
Si      -1.15676920       1.96152779       3.46016607       0.00000000
