10
Lattice="16.2900001489832 0.0 0.0 0.0 16.2900001489832 0.0 0.0 0.0 29.20513569536355" Properties=species:S:1:pos:R:3:initial_magmoms:R:1 pbc="T T T"
Si       0.10552662       2.28450962       0.32131490       0.00000000
Si      -1.37059174      -1.31430979       1.37445210       0.00000000
Si      -1.34402275      -0.14654484      -1.94146981       0.00000000
Si       2.20178900      -0.98347618       0.20557495       0.00000000
H       -2.31358727      -0.34818246       2.06737315       0.00000000
H        1.42372972       0.39441348       3.21330411       0.00000000
Si       2.25702839       2.83472067      -0.34952706       0.00000000
Si       2.46003437      -2.09319986      -1.85487658       0.00000000
Si      -0.03792312       0.55465822      -3.74684368       0.00000000
Si      -2.14738040      -2.33432444      -2.17216117       0.00000000
