10
Lattice="16.2900001489832 0.0 0.0 0.0 16.2900001489832 0.0 0.0 0.0 29.20513569536355" Properties=species:S:1:pos:R:3:initial_magmoms:R:1 pbc="T T T"
Si      -1.21762864      -1.33822351       1.57664217       0.00000000
Si       1.49219659      -1.49105629      -1.16871944       0.00000000
Si       1.44686152       1.30046329       1.46624676       0.00000000
Si      -1.52241454       1.32079321      -1.49106236       0.00000000
H        2.27695106      -0.61243885      -2.16756399       0.00000000
Si      -2.62353710       2.59794551       0.20919931       0.00000000
Si      -2.55182852      -2.72422559       0.21091657       0.00000000
H       -1.46036593      -1.35503479      -3.31349495       0.00000000
Si      -2.64407879      -0.01769094       2.96847132       0.00000000
Si       0.19914525      -2.79006978       2.83941383       0.00000000
