10
Lattice="16.2900001489832 0.0 0.0 0.0 16.2900001489832 0.0 0.0 0.0 29.20513569536355" Properties=species:S:1:pos:R:3:initial_magmoms:R:1 pbc="T T T"
Si      -1.22916196      -1.32809113      -1.52926852       0.00000000
Si       1.48141261      -1.32743953       1.33639780       0.00000000
Si      -1.87664060       0.83048050       1.29472208       0.00000000
Si       1.35490447       1.45653778      -1.39328941       0.00000000
Si      -2.58225824      -2.63826326      -0.10177990       0.00000000
Si       2.82466974      -2.58098762      -0.15212955       0.00000000
Si      -2.64593585       0.12375513      -2.79204018       0.00000000
Si      -2.74224234       2.72666909       0.09731151       0.00000000
Si      -3.60207741      -0.91287532       1.16470081       0.00000000
Si      -1.23970159       1.03013074       3.55738996       0.00000000
