10
Lattice="16.2900001489832 0.0 0.0 0.0 16.2900001489832 0.0 0.0 0.0 29.20513569536355" Properties=species:S:1:pos:R:3:initial_magmoms:R:1 pbc="T T T"
Si      -1.09703377      -1.74671156       1.01595906       0.00000000
Si       0.11740203       0.09651825      -2.29902828       0.00000000
Si       1.68933818       0.60002587       1.45914699       0.00000000
Si       0.26632521       2.06576750       2.67796492       0.00000000
Si      -2.21917043      -0.29833506      -2.57703197       0.00000000
Si       0.75479716       2.38855385      -2.48524023       0.00000000
H       -0.20250099       3.10770849       1.68583725       0.00000000
H        3.34471170      -1.24954075       0.37391335       0.00000000
Si      -1.41750694      -0.94234393       3.23277488       0.00000000
Si      -0.56576800       3.53424585      -0.77022704       0.00000000
