10
Lattice="16.2900001489832 0.0 0.0 0.0 16.2900001489832 0.0 0.0 0.0 29.20513569536355" Properties=species:S:1:pos:R:3:initial_magmoms:R:1 pbc="T T T"
Si       1.09703377       1.74671156      -1.01595906       0.00000000
Si      -2.22154877      -0.53885691      -0.59721582       0.00000000
Si       1.23010678      -1.94131190      -0.58941805       0.00000000
Si      -0.32047317       0.80436763       2.21681582       0.00000000
Si       0.01777239      -3.45866025       0.82930903       0.00000000
Si      -2.75358018       1.46196235      -1.77517576       0.00000000
Si       2.78637195       2.34673742       0.44318793       0.00000000
Si       0.11121183      -2.83773432      -2.43094788       0.00000000
Si       1.68427199       0.31148109       3.32541357       0.00000000
Si      -2.10012311      -2.68737761      -1.60052905       0.00000000
