10
Lattice="16.2900001489832 0.0 0.0 0.0 16.2900001489832 0.0 0.0 0.0 29.20513569536355" Properties=species:S:1:pos:R:3:initial_magmoms:R:1 pbc="T T T"
Si       2.01712556      -1.17675703      -0.05811822       0.00000000
Si       0.55426726       1.83817991       1.39723210       0.00000000
Si      -1.51951492      -1.47238795       1.10141328       0.00000000
Si      -0.53928045       0.27414441      -2.32172067       0.00000000
Si       1.57683943      -2.45263871      -1.96585609       0.00000000
Si      -0.60287662      -1.33608952       3.26709091       0.00000000
Si       0.35241786       0.83523718       3.49159079       0.00000000
Si      -0.42790572      -1.95975218      -3.07445384       0.00000000
Si      -0.79201981       3.61566327       0.70547926       0.00000000
Si       3.66292056       0.24130377      -0.87980471       0.00000000
