10
Lattice="16.2900001489832 0.0 0.0 0.0 16.2900001489832 0.0 0.0 0.0 29.20513569536355" Properties=species:S:1:pos:R:3:initial_magmoms:R:1 pbc="T T T"
Si      -0.10671579       2.22244211      -0.66453366       0.00000000
Si      -2.23889762      -0.48294963       0.48208917       0.00000000
Si       0.96384673       0.12712716       2.16655379       0.00000000
Si       0.68259988      -1.45906273      -1.76804971       0.00000000
H       -0.44567811      -2.80697880       1.03990727       0.00000000
Si      -1.95014108      -2.76040569       1.00261231       0.00000000
Si      -0.70196869       3.36043318       1.32062703       0.00000000
Si      -1.58737906       2.42563315      -2.49630897       0.00000000
Si      -3.03929049       0.81384841       2.21561841       0.00000000
Si      -1.25284762      -2.43983477      -2.71038262       0.00000000
