10
Lattice="16.2900001489832 0.0 0.0 0.0 16.2900001489832 0.0 0.0 0.0 29.20513569536355" Properties=species:S:1:pos:R:3:initial_magmoms:R:1 pbc="T T T"
Si       1.34628706      -1.77748337       0.69175284       0.00000000
Si      -1.93544750      -0.98077204      -0.94233291       0.00000000
Si       1.30381903       1.05619474      -1.70134518       0.00000000
Si      -0.68259988       1.45906273       1.76804971       0.00000000
H       -1.12827799      -1.34791606       2.80795698       0.00000000
Si       3.49286925      -0.83916307       0.55162660       0.00000000
Si      -3.16830729       0.95760766      -1.53067037       0.00000000
Si       0.79201981      -3.61566327      -0.70547926       0.00000000
Si      -2.92149750       0.97611310       2.25013888       0.00000000
Si       3.46366128       0.05730822      -1.64305173       0.00000000
