10
Lattice="16.2900001489832 0.0 0.0 0.0 16.2900001489832 0.0 0.0 0.0 29.20513569536355" Properties=species:S:1:pos:R:3:initial_magmoms:R:1 pbc="T T T"
H        1.61205841      -0.12575880      -0.51342629       0.00000000
Si       0.28470033       2.17556210       0.84534265       0.00000000
Si       0.55392517      -1.48856392       1.73545678       0.00000000
Si      -0.93985156       0.07475481      -2.16775120       0.00000000
Si       2.64494216      -1.04254372       0.51044736       0.00000000
H       -2.80929198      -0.34410996       2.12768175       0.00000000
Si      -1.96978682       0.63705304       2.98082217       0.00000000
Si      -1.79633090       2.65717595       1.77465007       0.00000000
Si       0.92313802       0.90870508      -3.45879343       0.00000000
Si       0.03978018      -0.43326513       3.77861887       0.00000000
