10
Lattice="16.2900001489832 0.0 0.0 0.0 16.2900001489832 0.0 0.0 0.0 29.20513569536355" Properties=species:S:1:pos:R:3:initial_magmoms:R:1 pbc="T T T"
Si      -0.12427641       0.42845958       1.45470781       0.00000000
Si      -0.45919881      -2.62560268      -1.01178272       0.00000000
Si       1.15377184      -1.33392295      -2.24856181       0.00000000
Si       0.66590263      -1.46292346       2.57636025       0.00000000
Si      -2.33826662       1.11526228       1.59451279       0.00000000
Si       1.55720998       2.01008828       1.75195768       0.00000000
Si      -2.46301544      -1.44842536      -1.39182915       0.00000000
Si       2.71080263       1.80674021      -0.33761137       0.00000000
Si      -1.87041782       0.36603630      -2.80614626       0.00000000
Si      -1.40230837       2.49230486      -1.85887768       0.00000000
