10
Lattice="16.2900001489832 0.0 0.0 0.0 16.2900001489832 0.0 0.0 0.0 29.20513569536355" Properties=species:S:1:pos:R:3:initial_magmoms:R:1 pbc="T T T"
Si      -1.46758240       1.45226980       1.10006985       0.00000000
Si       1.34768800       1.37701000      -1.36382143       0.00000000
Si      -1.46004013      -1.24507729      -1.39007684       0.00000000
Si       0.94162717      -1.77357377       1.33347729       0.00000000
Si      -2.56932398       0.05022207       2.62083967       0.00000000
Si      -0.03025053      -2.69169446      -2.58001089       0.00000000
Si      -2.70899444      -2.67385691       0.03481252       0.00000000
Si       2.67514382       0.03184695      -2.73643360       0.00000000
Si       2.71409321      -2.71852409       0.07943797       0.00000000
Si      -0.84883933      -3.50963166       1.31972167       0.00000000
