10
Lattice="16.2900001489832 0.0 0.0 0.0 16.2900001489832 0.0 0.0 0.0 29.20513569536355" Properties=species:S:1:pos:R:3:initial_magmoms:R:1 pbc="T T T"
Si      -1.32926401       1.47486729      -1.22359589       0.00000000
Si       0.96563863      -1.45601650      -1.54981725       0.00000000
Si      -1.34157925      -1.36331011       1.35373981       0.00000000
Si       1.39043296       1.39002571       1.30073249       0.00000000
Si       2.04648014       0.05789466      -3.04087377       0.00000000
Si       2.57015477      -2.72570798      -0.24590724       0.00000000
Si      -0.04178385       2.81688312       2.51610421       0.00000000
Si      -2.66903507      -0.01814706       2.72635199       0.00000000
Si       2.71492400       2.68802921      -0.13051775       0.00000000
Si       2.85808932       0.00982287       2.54002322       0.00000000
