10
Lattice="16.2900001489832 0.0 0.0 0.0 16.2900001489832 0.0 0.0 0.0 29.20513569536355" Properties=species:S:1:pos:R:3:initial_magmoms:R:1 pbc="T T T"
Si      -1.62781084      -1.40966331      -0.77799561       0.00000000
Si       1.49612248       0.93169841      -1.48181017       0.00000000
Si      -1.11739627       1.83696630       0.89721097       0.00000000
Si       0.88899418      -0.77749744       2.01734475       0.00000000
Si       0.86348404       2.92733746       1.64410311       0.00000000
Si      -2.73036692       0.54528658       2.13399006       0.00000000
Si       0.15366357       1.10741865      -3.38875951       0.00000000
Si       2.02049759       1.14570015       2.74820327       0.00000000
Si      -3.13580874      -1.51846422       0.99872803       0.00000000
Si       1.86649193       3.12317584      -0.62350044       0.00000000
