10
Lattice="16.2900001489832 0.0 0.0 0.0 16.2900001489832 0.0 0.0 0.0 29.20513569536355" Properties=species:S:1:pos:R:3:initial_magmoms:R:1 pbc="T T T"
Si      -1.08084151      -1.51391116       1.49105652       0.00000000
Si       0.15910443      -1.61334532      -1.76229630       0.00000000
Si      -1.74030959       1.39268098      -0.91505531       0.00000000
Si       1.75970772       1.16231595       1.39283089       0.00000000
Si      -2.04648014      -0.05789466       3.04087377       0.00000000
Si      -2.28753956       3.08917047       0.59588699       0.00000000
Si      -1.31450527      -3.42370191      -1.33598893       0.00000000
Si       0.52367463      -2.78360265       2.79496653       0.00000000
Si       0.66844387       2.63013455       2.91035602       0.00000000
Si      -0.75867418      -0.70314157      -3.85060953       0.00000000
