10
Lattice="16.2900001489832 0.0 0.0 0.0 16.2900001489832 0.0 0.0 0.0 29.20513569536355" Properties=species:S:1:pos:R:3:initial_magmoms:R:1 pbc="T T T"
Si       1.38631159       1.19151577       1.47132553       0.00000000
Si       1.43221681      -1.42685740      -1.21537172       0.00000000
Si      -1.22844520      -1.39386852       1.46303127       0.00000000
Si      -1.29497356       1.40598991      -1.40780436       0.00000000
Si       0.66707551      -2.29683952       2.62002193       0.00000000
Si       2.31244697      -0.54164250       2.78847715       0.00000000
Si       0.04178385      -2.81688312      -2.51610421       0.00000000
Si      -2.79689529      -0.05748741      -2.54040581       0.00000000
Si      -2.58025457       2.77555539       0.02821216       0.00000000
Si       0.02086749       2.45723249       2.89498828       0.00000000
