10
Lattice="16.2900001489832 0.0 0.0 0.0 16.2900001489832 0.0 0.0 0.0 29.20513569536355" Properties=species:S:1:pos:R:3:initial_magmoms:R:1 pbc="T T T"
Si      -0.68966974      -0.97507054      -0.93015437       0.00000000
Si       0.88091434       1.81819208       1.21948965       0.00000000
Si       1.41294574      -0.18262719       2.39744959       0.00000000
Si      -1.41999768       2.33323301       0.77551317       0.00000000
Si       0.14998203      -0.13839984      -2.99101477       0.00000000
Si      -2.94958309      -0.82254727      -0.20934241       0.00000000
Si       1.53437140      -2.33114789       1.39413636       0.00000000
Si      -0.09681147      -3.13347927      -0.06705499       0.00000000
Si       2.51235785       1.80460622      -0.59832562       0.00000000
Si      -2.77256128       0.52693263       1.77535099       0.00000000
