10
Lattice="16.2900001489832 0.0 0.0 0.0 16.2900001489832 0.0 0.0 0.0 29.20513569536355" Properties=species:S:1:pos:R:3:initial_magmoms:R:1 pbc="T T T"
Si      -2.33741954      -0.41140395       0.06138920       0.00000000
Si       0.68947426      -2.24836211      -0.48933205       0.00000000
Si       0.53818902       1.68334346      -1.76483714       0.00000000
Si       0.54108864       0.17065404       2.51278067       0.00000000
H        2.77544543      -0.55097667       0.59464577       0.00000000
H       -2.57815316       1.44788779      -1.63788242       0.00000000
Si      -2.16044498      -2.08383311       1.74538652       0.00000000
H       -2.28498203       2.14477400      -1.84944442       0.00000000
Si       1.60814881       2.26017236       2.43170721       0.00000000
Si      -0.25428690      -3.44784369       1.32544588       0.00000000
