10
Lattice="16.2900001489832 0.0 0.0 0.0 16.2900001489832 0.0 0.0 0.0 29.20513569536355" Properties=species:S:1:pos:R:3:initial_magmoms:R:1 pbc="T T T"
Si       1.33419988       1.38600208       1.36572560       0.00000000
Si       1.22888503      -1.55251846      -1.30672831       0.00000000
Si      -1.43070184       1.21209004      -1.45684562       0.00000000
Si      -1.39243175      -1.43389468       1.33108831       0.00000000
Si      -2.08697545      -0.68647690      -2.78166651       0.00000000
Si      -0.54703450      -2.56044593      -2.63274865       0.00000000
Si       2.55182852       2.72422559      -0.21091657       0.00000000
Si      -2.79834510       2.48512097       0.08347996       0.00000000
Si       2.75097378      -0.06584418       2.62849726       0.00000000
Si      -0.09225027       2.70653465       2.75755475       0.00000000
