10
Lattice="16.2900001489832 0.0 0.0 0.0 16.2900001489832 0.0 0.0 0.0 29.20513569536355" Properties=species:S:1:pos:R:3:initial_magmoms:R:1 pbc="T T T"
Si       0.83652409       2.12776724       0.46409881       0.00000000
Si      -2.35356293      -0.02308293       0.00096377       0.00000000
Si       0.86356549      -1.74373049       1.36177707       0.00000000
Si       0.99088813      -0.34971372      -2.17940405       0.00000000
H        2.29447910      -1.00805779      -1.73265309       0.00000000
H       -0.45756981       0.93946060       2.93967214       0.00000000
Si      -0.96073534      -3.24056973       0.82784878       0.00000000
Si      -2.66201408      -2.26297424      -0.60562690       0.00000000
Si       3.24227366      -1.69489307       0.85962396       0.00000000
Si       2.37115287       2.63775827      -1.24317501       0.00000000
