10
Lattice="16.2900001489832 0.0 0.0 0.0 16.2900001489832 0.0 0.0 0.0 29.20513569536355" Properties=species:S:1:pos:R:3:initial_magmoms:R:1 pbc="T T T"
Si      -0.07866441      -0.81047638       1.29919046       0.00000000
H        0.23151348       2.43414956       0.17669107       0.00000000
Si       1.60953346       2.21144897      -0.39277987       0.00000000
H       -2.04610547       1.67857049       1.29764259       0.00000000
Si      -2.23210469      -1.80939548       0.79437969       0.00000000
Si       1.29409390       1.18830664      -2.47557333       0.00000000
Si       1.14549652       0.79291576       2.70632310       0.00000000
Si       0.45756981      -0.93946060      -2.93967214       0.00000000
Si       1.23448879      -2.71766072       0.93789373       0.00000000
Si      -2.96450310      -0.41071977      -0.91780059       0.00000000
