10
Lattice="16.2900001489832 0.0 0.0 0.0 16.2900001489832 0.0 0.0 0.0 29.20513569536355" Properties=species:S:1:pos:R:3:initial_magmoms:R:1 pbc="T T T"
Si       1.79292629      -0.69379111      -1.45444496       0.00000000
Si       1.13254597      -0.20191455       2.17800220       0.00000000
Si      -1.86600323      -1.70297291      -0.05344540       0.00000000
Si      -0.83619829       2.08995815      -1.17541910       0.00000000
H       -1.69062509       0.25951599       2.09339492       0.00000000
H       -1.98379622      -0.43737021       2.30495692       0.00000000
Si       0.47459286      -2.03462102      -2.82597655       0.00000000
Si       0.43518735       1.90723322       3.00126577       0.00000000
Si      -2.19841697       0.88800049      -2.73365911       0.00000000
Si      -0.82362241      -3.42036246      -1.37217410       0.00000000
