10
Lattice="16.2900001489832 0.0 0.0 0.0 16.2900001489832 0.0 0.0 0.0 29.20513569536355" Properties=species:S:1:pos:R:3:initial_magmoms:R:1 pbc="T T T"
Si       0.86739038       0.92429461       1.96130009       0.00000000
Si      -0.51287436      -2.06317739       1.02507106       0.00000000
Si       1.66147250       0.16413804      -1.66986204       0.00000000
Si      -2.13605885       0.38429739      -0.93590778       0.00000000
H       -0.35486136       0.74083663      -2.96578153       0.00000000
H        0.79071661      -2.72152145       1.47182202       0.00000000
Si      -0.88803307      -3.11622816      -1.05833571       0.00000000
Si       1.53830544       2.48738528      -1.81071841       0.00000000
H       -1.00473463       3.28596996      -0.26126914       0.00000000
Si      -3.25044147       1.21337695       0.97933582       0.00000000
