10
Lattice="16.2900001489832 0.0 0.0 0.0 16.2900001489832 0.0 0.0 0.0 29.20513569536355" Properties=species:S:1:pos:R:3:initial_magmoms:R:1 pbc="T T T"
Si      -1.73208314      -1.14176611      -1.05766399       0.00000000
Si       1.36412461       1.55615113      -1.12063026       0.00000000
Si       1.11726595      -1.66208501       1.25322158       0.00000000
Si      -1.21757977       0.73091602       1.90949018       0.00000000
H        2.35336745      -0.93232558      -1.21364862       0.00000000
H        2.24859017       1.23958756       1.92786021       0.00000000
H        2.89846344      -1.30554577      -0.77665217       0.00000000
Si       0.00288333      -0.83300545       3.16846517       0.00000000
Si      -2.55746486       0.70485202      -2.16725471       0.00000000
Si       2.91209817       1.77352490       0.67627412       0.00000000
