10
Lattice="16.2900001489832 0.0 0.0 0.0 16.2900001489832 0.0 0.0 0.0 29.20513569536355" Properties=species:S:1:pos:R:3:initial_magmoms:R:1 pbc="T T T"
Si       1.37801998      -0.22270059      -0.56947094       0.00000000
H       -0.23151348      -2.43414956      -0.17669107       0.00000000
H       -2.27761895      -0.75557908       1.12095152       0.00000000
Si      -0.13323591       0.46416726       2.83748337       0.00000000
Si       1.85095127       1.98558812      -1.07860407       0.00000000
Si      -2.28563363       0.90126055      -1.78884377       0.00000000
Si       1.06258042      -1.24584292      -2.65226440       0.00000000
Si      -3.04072401      -0.67533454      -0.16743304       0.00000000
Si       2.76098235      -0.88544296       1.17901133       0.00000000
Si       0.91398304      -1.64123381       2.52963203       0.00000000
