10
Lattice="16.2900001489832 0.0 0.0 0.0 16.2900001489832 0.0 0.0 0.0 29.20513569536355" Properties=species:S:1:pos:R:3:initial_magmoms:R:1 pbc="T T T"
Si      -0.96563863       1.45601650       1.54981725       0.00000000
Si       1.08084151       1.51391116      -1.49105652       0.00000000
Si       1.60451614      -1.26969148       1.30391001       0.00000000
Si      -1.77391586      -1.32843322      -1.17915619       0.00000000
Si      -0.23366376      -1.90979075      -2.82704545       0.00000000
Si       1.23994594      -0.09943416      -3.25335282       0.00000000
Si      -2.30721788       0.09270639       2.90355707       0.00000000
Si      -2.29490264       2.93088379       0.32622137       0.00000000
Si      -0.65946808       2.90659215      -2.40611183       0.00000000
Si       0.36784449      -2.57290778       2.84181741       0.00000000
