10
Lattice="16.2900001489832 0.0 0.0 0.0 16.2900001489832 0.0 0.0 0.0 29.20513569536355" Properties=species:S:1:pos:R:3:initial_magmoms:R:1 pbc="T T T"
Si      -1.37600002       1.86709449       0.22733278       0.00000000
Si       0.76027060      -0.06801075       2.22805980       0.00000000
Si      -1.62207676      -1.74086345      -0.03381955       0.00000000
Si       2.20464138      -0.45225927      -1.01356423       0.00000000
H       -0.36559647      -0.42777540      -3.27544358       0.00000000
Si       1.50652854      -2.78945076      -1.05287435       0.00000000
Si       2.21159721       1.87986830      -1.67722174       0.00000000
Si      -0.02810025      -3.29944179       0.65439948       0.00000000
Si      -2.57598659       1.00918180       2.14517563       0.00000000
Si       0.28733931      -2.27629946       2.73719293       0.00000000
