10
Lattice="16.2900001489832 0.0 0.0 0.0 16.2900001489832 0.0 0.0 0.0 29.20513569536355" Properties=species:S:1:pos:R:3:initial_magmoms:R:1 pbc="T T T"
Si      -1.30647430      -1.23367429       1.49398288       0.00000000
Si      -1.65765413       1.10390815      -1.26332948       0.00000000
Si       1.34830702       1.49630167       1.26183125       0.00000000
Si       1.36764325      -1.27303093      -1.54032558       0.00000000
Si       0.05145849       2.11067903      -2.61605967       0.00000000
Si      -2.55819791      -2.40205826      -0.13683190       0.00000000
Si       1.87466951       0.54043705      -3.02323387       0.00000000
Si       2.79834510      -2.48512097      -0.08347996       0.00000000
Si       2.70609482       0.22141368       2.67407479       0.00000000
Si       0.08036378      -2.64953594       2.74489725       0.00000000
