10
Lattice="16.2900001489832 0.0 0.0 0.0 16.2900001489832 0.0 0.0 0.0 29.20513569536355" Properties=species:S:1:pos:R:3:initial_magmoms:R:1 pbc="T T T"
Si      -1.33419988      -1.38600208      -1.36572560       0.00000000
Si       1.41677389      -1.45184626       1.26277166       0.00000000
Si      -1.42645015       1.32053257       1.39182915       0.00000000
Si       1.21762864       1.33822351      -1.57664217       0.00000000
Si       2.66449016       2.63868680      -0.11039541       0.00000000
Si      -2.78423796       2.59542056      -0.02041439       0.00000000
Si       2.64593585      -0.12375513       2.79204018       0.00000000
Si       0.06367761      -2.76201840       2.69026028       0.00000000
Si       2.70982523      -0.15283278      -2.74536161       0.00000000
Si      -0.09630648       2.60291396       2.88935169       0.00000000
