10
Lattice="16.2900001489832 0.0 0.0 0.0 16.2900001489832 0.0 0.0 0.0 29.20513569536355" Properties=species:S:1:pos:R:3:initial_magmoms:R:1 pbc="T T T"
Si       1.20379517       1.36676359       1.47030335       0.00000000
Si      -1.27490428       1.53617959      -1.26297609       0.00000000
Si       1.47492268      -1.23199642      -1.40447498       0.00000000
Si      -1.32243850      -1.45450153       1.37836558       0.00000000
Si      -0.53234091       2.58276323       2.48462692       0.00000000
Si      -2.59861340       0.11293857      -2.62069365       0.00000000
Si       0.16854155      -2.70366761      -2.69995638       0.00000000
Si      -2.55559151       2.85527865       0.29459220       0.00000000
Si      -2.64077192      -2.79533145       0.00683400       0.00000000
Si       0.16501607      -2.87402844       2.57580535       0.00000000
