10
Lattice="16.2900001489832 0.0 0.0 0.0 16.2900001489832 0.0 0.0 0.0 29.20513569536355" Properties=species:S:1:pos:R:3:initial_magmoms:R:1 pbc="T T T"
Si       1.41063256      -1.85854241      -0.56827353       0.00000000
Si      -1.87046343      -0.39669408      -1.47731258       0.00000000
Si      -0.09979254       0.06892299       2.51415331       0.00000000
Si       1.00421335       2.29351799      -0.71596390       0.00000000
H       -1.67493130      -2.19286208       1.25325078       0.00000000
H       -2.32386626      -0.06592563       2.17540294       0.00000000
Si      -1.45311037       2.81973387      -0.96628112       0.00000000
Si       2.24725439      -0.47835585       2.61038423       0.00000000
Si      -1.36703401       1.45471330      -2.87393138       0.00000000
Si       3.22748886       1.26817651      -0.81274972       0.00000000
