10
Lattice="16.2900001489832 0.0 0.0 0.0 16.2900001489832 0.0 0.0 0.0 29.20513569536355" Properties=species:S:1:pos:R:3:initial_magmoms:R:1 pbc="T T T"
Si      -1.10112256       1.27715230       1.70026167       0.00000000
Si       0.62060014       1.82579951      -1.50289920       0.00000000
Si       1.52241454      -1.32079321       1.49106236       0.00000000
Si      -1.95308957      -1.01946079      -1.23777498       0.00000000
H        0.06204861      -2.67582800      -1.82243259       0.00000000
Si      -2.67061032       2.40955166       0.34858958       0.00000000
Si      -2.46011582      -2.83292877       0.24513331       0.00000000
Si      -1.06836337       3.49112622      -1.00988731       0.00000000
Si      -3.77630058       0.55078119      -0.83060078       0.00000000
Si      -2.47945205      -0.06359616       3.04729014       0.00000000
