10
Lattice="16.2900001489832 0.0 0.0 0.0 16.2900001489832 0.0 0.0 0.0 29.20513569536355" Properties=species:S:1:pos:R:3:initial_magmoms:R:1 pbc="T T T"
Si      -1.33014367      -1.28238139      -1.49752254       0.00000000
Si       0.86560174      -1.89618860       1.19741056       0.00000000
Si      -1.40309029       1.34894233       1.43362170       0.00000000
Si       1.47699802       1.30020265      -1.41329493       0.00000000
Si      -2.62719584       2.66519063      -0.14187855       0.00000000
Si      -2.64949359      -2.68165982      -0.13121867       0.00000000
Si       2.74224234      -2.72666909      -0.09731151       0.00000000
Si      -0.85983508      -3.63954441       1.06738930       0.00000000
Si       0.09630648      -2.60291396      -2.88935169       0.00000000
Si       2.82001080       2.70187571      -0.00601626       0.00000000
