10
Lattice="16.2900001489832 0.0 0.0 0.0 16.2900001489832 0.0 0.0 0.0 29.20513569536355" Properties=species:S:1:pos:R:3:initial_magmoms:R:1 pbc="T T T"
H       -2.22407372      -0.13484862      -0.33875037       0.00000000
Si      -0.12922857       2.34484778       0.37192740       0.00000000
Si       2.34704693      -0.54727885       0.09623092       0.00000000
Si       0.09979254      -0.06892299      -2.51415331       0.00000000
Si      -1.27627916      -0.82168390       2.25352668       0.00000000
H       -1.57513876      -2.26178507      -1.26090253       0.00000000
Si      -3.52766469       0.52349544      -0.78550133       0.00000000
Si       2.49867425      -2.64140723      -1.03029878       0.00000000
Si       1.51042510      -1.92746540      -3.08242684       0.00000000
Si       1.13909455       3.56000034      -1.24203601       0.00000000
