10
Lattice="16.2900001489832 0.0 0.0 0.0 16.2900001489832 0.0 0.0 0.0 29.20513569536355" Properties=species:S:1:pos:R:3:initial_magmoms:R:1 pbc="T T T"
Si      -0.76310506       0.08024454      -1.28838456       0.00000000
H       -1.39768201      -0.92875807       1.73017065       0.00000000
H        2.27761895       0.75557908      -1.12095152       0.00000000
H        2.04610547      -1.67857049      -1.29764259       0.00000000
Si       2.14438304       1.21974634       1.71653185       0.00000000
Si      -2.92201878       0.54242442      -0.49549433       0.00000000
H       -2.75758752       1.09810891       0.90769562       0.00000000
Si       1.96744106      -2.48904686       0.00154787       0.00000000
Si      -0.91839763      -2.08929026      -2.21544318       0.00000000
Si      -0.00801468       1.65683963      -2.90979528       0.00000000
