10
Lattice="16.2900001489832 0.0 0.0 0.0 16.2900001489832 0.0 0.0 0.0 29.20513569536355" Properties=species:S:1:pos:R:3:initial_magmoms:R:1 pbc="T T T"
Si      -1.54025209       0.58135753       1.64788927       0.00000000
Si       1.04721895      -2.10540107      -0.30785134       0.00000000
Si       1.47360970       1.81035659      -0.42630737       0.00000000
H        0.13323591      -0.46416726      -2.83748337       0.00000000
H       -2.14438304      -1.21974634      -1.71653185       0.00000000
Si       0.23366376       1.90979075       2.82704545       0.00000000
Si       2.89421826      -1.34961022      -1.65847204       0.00000000
Si       3.57652818       0.63464212      -0.47899343       0.00000000
Si       0.55583110       2.72056034      -2.51462059       0.00000000
Si       1.51125589      -0.68686786      -3.40695431       0.00000000
