10
Lattice="16.2900001489832 0.0 0.0 0.0 16.2900001489832 0.0 0.0 0.0 29.20513569536355" Properties=species:S:1:pos:R:3:initial_magmoms:R:1 pbc="T T T"
Si      -1.22410555       1.31624830      -1.57550025       0.00000000
Si       1.40309029      -1.34894233      -1.43362170       0.00000000
Si       0.97423975       1.90439876       1.15506312       0.00000000
Si      -1.51753080      -1.43184214       1.30993795       0.00000000
Si      -2.42640253       2.80254792      -0.22178380       0.00000000
Si      -2.72132597      -2.79860574      -0.16036540       0.00000000
Si       0.07294662      -2.63132372      -2.93114424       0.00000000
Si      -2.63603153       0.00381186      -2.93076457       0.00000000
Si       2.83722933       2.73834903      -0.13597911       0.00000000
Si       2.26869203      -3.24513093      -0.23621114       0.00000000
