10
Lattice="16.2900001489832 0.0 0.0 0.0 16.2900001489832 0.0 0.0 0.0 29.20513569536355" Properties=species:S:1:pos:R:3:initial_magmoms:R:1 pbc="T T T"
Si      -0.86739038      -0.92429461      -1.96130009       0.00000000
Si       2.01817138      -1.16611966       0.22119970       0.00000000
Si      -1.53462879      -0.50999103       1.70727382       0.00000000
Si       0.69811284       2.33719148       0.03931011       0.00000000
Si      -1.50652854       2.78945076       1.05287435       0.00000000
Si      -1.38026474      -2.98747200      -0.93622904       0.00000000
Si      -3.12860530       1.04858731       1.01905480       0.00000000
Si       2.05363471       1.98741260      -1.98110117       0.00000000
Si       2.58920104      -0.27153801       2.32023121       0.00000000
Si       2.30044450       2.00591804       1.79970808       0.00000000
