10
Lattice="16.2900001489832 0.0 0.0 0.0 16.2900001489832 0.0 0.0 0.0 29.20513569536355" Properties=species:S:1:pos:R:3:initial_magmoms:R:1 pbc="T T T"
Si      -0.07799652      -2.34533648      -0.30811418       0.00000000
Si       0.56167921       0.92862775      -2.13317232       0.00000000
Si      -1.86374869       1.05057469       1.08514602       0.00000000
Si       1.84692764       0.58992607       1.42950378       0.00000000
H        2.06614217       0.88205464      -2.09587736       0.00000000
Si      -1.41225179      -2.86568796       1.65277704       0.00000000
Si      -3.24671106       1.71331706      -0.66333625       0.00000000
H        3.76841460       0.33229971      -1.05240706       0.00000000
Si       2.50769891       2.87720499       0.96201717       0.00000000
Si      -1.18143878       3.03482703       2.26462463       0.00000000
