10
Lattice="16.2900001489832 0.0 0.0 0.0 16.2900001489832 0.0 0.0 0.0 29.20513569536355" Properties=species:S:1:pos:R:3:initial_magmoms:R:1 pbc="T T T"
Si      -1.44946092      -1.02773611       1.51907593       0.00000000
Si       1.20229698      -1.48629961      -1.35371645       0.00000000
Si      -1.38715167       1.32724405      -1.39115743       0.00000000
Si       1.72586736       0.95850361       1.37769387       0.00000000
Si      -1.35400152       0.89443504       3.12649739       0.00000000
Si       2.42640253      -2.80254792       0.22178380       0.00000000
Si       2.63434438       2.65466729       0.02467834       0.00000000
Si       2.55486547      -0.09721872      -2.75235040       0.00000000
Si       3.40064228      -0.89814916       1.37684692       0.00000000
Si      -0.05668969       2.62922231      -2.80281687       0.00000000
