10
Lattice="16.2900001489832 0.0 0.0 0.0 16.2900001489832 0.0 0.0 0.0 29.20513569536355" Properties=species:S:1:pos:R:3:initial_magmoms:R:1 pbc="T T T"
Si       0.83950516       0.98116300       0.85314042       0.00000000
Si      -0.87745271      -2.01085391      -1.02261783       0.00000000
H       -2.20581263      -0.81287101       1.68904982       0.00000000
Si      -0.10340240      -2.75459016       1.07731905       0.00000000
Si      -0.31264583       0.93367765       2.84411293       0.00000000
H       -2.75090862      -0.43965081       1.25205337       0.00000000
Si       1.01296108       3.00128592      -0.35303168       0.00000000
Si       2.84907216      -0.08915517       1.65093712       0.00000000
Si      -0.18947877      -1.38956959       2.98496930       0.00000000
Si       2.80929198       0.34410996      -2.12768175       0.00000000
