10
Lattice="16.2900001489832 0.0 0.0 0.0 16.2900001489832 0.0 0.0 0.0 29.20513569536355" Properties=species:S:1:pos:R:3:initial_magmoms:R:1 pbc="T T T"
Si       1.15215099       0.04748535      -1.99097251       0.00000000
Si       1.38271965       0.42432192       1.79091733       0.00000000
Si      -1.87953207       1.33252201       0.29786318       0.00000000
Si       0.12316706      -2.32324724       0.14085637       0.00000000
H       -1.89316680      -1.74654866      -1.15506312       0.00000000
H        0.31264583      -0.93367765      -2.84411293       0.00000000
H       -2.54304007       0.79858468       1.54944927       0.00000000
H       -2.43826279      -1.37332846      -1.59205956       0.00000000
Si       2.60705977       2.14500206       0.55691273       0.00000000
Si      -1.53830544      -2.48738528       1.81071841       0.00000000
