10
Lattice="10.86 0.0 0.0 0.0 10.86 0.0 0.0 0.0 10.86" Properties=species:S:1:pos:R:3:initial_magmoms:R:1 pbc="T T T"
Si      -1.39582494       1.12818024       1.30553490       0.00000000
Si       1.31917506       1.12818024      -1.40946510       0.00000000
Si       1.31917506      -1.58681976       1.30553490       0.00000000
Si      -0.03832494       2.48568024       2.66303490       0.00000000
Si       2.67667506       2.48568024      -0.05196510       0.00000000
Si      -2.75332494       2.48568024      -0.05196510       0.00000000
Si      -0.03832494       2.48568024      -2.76696510       0.00000000
Si       2.67667506      -0.22931976       2.66303490       0.00000000
Si      -2.75332494      -0.22931976       2.66303490       0.00000000
Si       2.67667506      -0.22931976      -2.76696510       0.00000000
