10
Lattice="16.28999089631971 0.0 0.0 0.0 16.28999089631971 0.0 0.0 0.0 34.5300574570662" Properties=species:S:1:pos:R:3:initial_magmoms:R:1 pbc="T T T"
Si      -1.82670751      -0.18919695       1.49404736       0.00000000
Si       0.73566943      -1.94482793      -1.18866336       0.00000000
Si       2.02785576       1.31114300       0.35282832       0.00000000
Si      -2.09019826       0.86263043      -1.08517672       0.00000000
Si       1.05839225      -2.46390878       1.06131644       0.00000000
Si      -0.33140857       1.97782754      -2.32560067       0.00000000
Si      -1.32826609      -2.48458079       1.34681111       0.00000000
Si       2.35491009      -0.92654003      -2.51002581       0.00000000
Si       1.08926995       3.36259157      -0.73697543       0.00000000
Si       3.74068410       0.33042310      -1.10478981       0.00000000
