10
Lattice="16.28999089631971 0.0 0.0 0.0 16.28999089631971 0.0 0.0 0.0 34.5300574570662" Properties=species:S:1:pos:R:3:initial_magmoms:R:1 pbc="T T T"
Si       1.38315132      -0.43290675       1.79943136       0.00000000
Si       0.85846671       0.96572007      -1.93337353       0.00000000
Si      -0.42671655      -2.20342124      -0.68528390       0.00000000
Si      -1.88325432       1.20000285       0.86128370       0.00000000
Si       0.11712510      -2.11566212       2.80525797       0.00000000
Si      -3.18531402      -0.59585562       1.77847160       0.00000000
Si       1.45257930       3.21685146      -1.37861331       0.00000000
Si      -2.55769290      -2.33750097      -1.59197466       0.00000000
Si      -2.90395314       2.34758448      -0.96649685       0.00000000
Si      -0.66468087       0.94646529      -3.69986319       0.00000000
