10
Lattice="16.28999089631971 0.0 0.0 0.0 16.28999089631971 0.0 0.0 0.0 34.5300574570662" Properties=species:S:1:pos:R:3:initial_magmoms:R:1 pbc="T T T"
Si       1.96369434      -0.90568002      -0.85703651       0.00000000
Si      -1.33874478       0.61412648      -1.88382287       0.00000000
Si      -0.78661152      -1.73108684       1.48651980       0.00000000
Si       0.89313183       1.59452384       1.65689120       0.00000000
Si       0.90508869      -3.40796315       1.00254625       0.00000000
Si      -0.03668508       2.40998495      -2.80101077       0.00000000
Si       3.01580028      -2.00456336       0.94916275       0.00000000
Si      -3.29817277       1.53931703      -1.04032215       0.00000000
Si       3.22972056       0.77707535      -1.86286311       0.00000000
Si       1.48553397      -2.49816665      -2.50156594       0.00000000
