10
Lattice="16.28999089631971 0.0 0.0 0.0 16.28999089631971 0.0 0.0 0.0 34.5300574570662" Properties=species:S:1:pos:R:3:initial_magmoms:R:1 pbc="T T T"
Si      -1.13191065      -1.90636398       0.75503466       0.00000000
Si       0.68245326       1.34252080       1.79780845       0.00000000
Si      -0.91704555       0.72654703      -2.16410350       0.00000000
Si       2.41013808      -1.35682912      -2.06158370       0.00000000
Si      -1.40229207       2.73065686       1.74811967       0.00000000
Si       0.79578279      -0.25417287      -3.62172163       0.00000000
Si       0.46977102      -3.39481386       1.73292643       0.00000000
Si       2.09925972      -3.24364266      -0.04892912       0.00000000
Si      -1.88650906      -3.04850475      -1.45561539       0.00000000
Si      -2.94490131      -0.58459597      -2.51693182       0.00000000
