10
Lattice="16.28999089631971 0.0 0.0 0.0 16.28999089631971 0.0 0.0 0.0 34.5300574570662" Properties=species:S:1:pos:R:3:initial_magmoms:R:1 pbc="T T T"
Si       1.35904212      -1.35545832       1.35613423       0.00000000
Si      -1.35651717      -1.35650088      -1.35772262       0.00000000
Si       1.35886293       1.35806472      -1.35754997       0.00000000
Si      -1.36062225       1.36174626       1.35917288       0.00000000
Si      -2.71335200      -2.71311579       0.00075966       0.00000000
Si      -2.71440759       2.71350675      -0.00003453       0.00000000
Si      -2.71362404       0.00099369      -2.71551430       0.00000000
Si       0.00141723      -2.71415835      -2.71568695       0.00000000
Si       0.00110772       2.71580364      -2.71461651       0.00000000
Si       2.71599912       2.71472850       0.00113949       0.00000000
