10
Lattice="16.28999089631971 0.0 0.0 0.0 16.28999089631971 0.0 0.0 0.0 34.5300574570662" Properties=species:S:1:pos:R:3:initial_magmoms:R:1 pbc="T T T"
Si      -1.35904212       1.35545832      -1.35613423       0.00000000
Si       1.35586557      -1.36125756      -1.35540910       0.00000000
Si       1.35969372       1.33556823       1.38106495       0.00000000
Si      -1.35687555      -1.35433431       1.37495313       0.00000000
Si      -0.05183478       2.72541474       2.68122593       0.00000000
Si      -0.00017919       2.71352304      -2.71368420       0.00000000
Si       2.71451673      -0.00135207      -2.71368420       0.00000000
Si      -2.71555929      -0.00104256      -2.71385685       0.00000000
Si       0.00001629      -2.71611315      -2.71382232       0.00000000
Si       2.71692765      -2.71430496       0.00248617       0.00000000
