10
Lattice="16.28999089631971 0.0 0.0 0.0 16.28999089631971 0.0 0.0 0.0 34.5300574570662" Properties=species:S:1:pos:R:3:initial_magmoms:R:1 pbc="T T T"
Si       1.38321648       1.58873112       1.07167546       0.00000000
Si       1.48919922      -1.17788103      -1.45899933       0.00000000
Si      -1.20831075       1.53971451      -1.46763185       0.00000000
Si      -1.29714012      -1.35435060       1.63976428       0.00000000
Si      -0.51010506       0.64189116       3.12769982       0.00000000
Si      -2.65689900      -2.51818965      -0.03753419       0.00000000
Si       2.84006376       0.30709908       2.41399767       0.00000000
Si      -0.09044208       2.96606691       2.35660868       0.00000000
Si       0.14892318      -2.51015868      -2.84621064       0.00000000
Si       2.64073932      -2.75641461       0.01546947       0.00000000
