10
Lattice="16.28999089631971 0.0 0.0 0.0 16.28999089631971 0.0 0.0 0.0 34.5300574570662" Properties=species:S:1:pos:R:3:initial_magmoms:R:1 pbc="T T T"
Si      -0.02627577       0.95562027       2.10581673       0.00000000
Si       2.21299650      -0.44549892      -0.62754961       0.00000000
Si      -0.45709740      -2.31070392      -0.19685597       0.00000000
Si      -1.52422272       1.18654731      -1.40641003       0.00000000
Si       1.34620560      -2.35409559      -1.74093741       0.00000000
Si      -3.31847500       0.99305469       0.19651067       0.00000000
Si      -2.35210821       1.05217110       2.40546874       0.00000000
Si       0.69310692       3.15315756       1.53613952       0.00000000
Si       0.27893367      -1.19656566      -3.60000221       0.00000000
Si      -2.78241345      -2.73389368      -0.13342422       0.00000000
