10
Lattice="16.28999089631971 0.0 0.0 0.0 16.28999089631971 0.0 0.0 0.0 34.5300574570662" Properties=species:S:1:pos:R:3:initial_magmoms:R:1 pbc="T T T"
Si      -0.51981390       0.77243922       2.25336375       0.00000000
Si       0.73184454       1.81050318      -1.53676107       0.00000000
Si       1.66381173      -1.90747755      -0.36222051       0.00000000
Si      -2.02844709      -0.80710434      -1.48558749       0.00000000
Si      -2.88109827       0.70885935       2.01407032       0.00000000
Si       2.00728638       0.51676767      -3.03215510       0.00000000
Si       2.12289651       3.11376834      -0.12748504       0.00000000
Si      -0.75517182      -2.18833344      -3.02866756       0.00000000
Si       3.31688835      -0.89575452      -1.70260902       0.00000000
Si       3.52893528       1.32501231       0.93262284       0.00000000
