10
Lattice="16.28999089631971 0.0 0.0 0.0 16.28999089631971 0.0 0.0 0.0 34.5300574570662" Properties=species:S:1:pos:R:3:initial_magmoms:R:1 pbc="T T T"
Si      -0.50125959       0.29682009       2.28292149       0.00000000
Si      -2.24334477      -0.49388022      -0.72050458       0.00000000
Si       1.35804843      -1.95111846      -0.62533969       0.00000000
Si       0.76986540       2.26781235      -0.61290886       0.00000000
Si      -1.30015377       2.80776069      -1.68175286       0.00000000
Si      -1.62455283       2.48313357       2.14783983       0.00000000
Si      -2.40762942       0.82101600      -2.70992042       0.00000000
Si      -0.29528883      -3.73503636      -0.36125366       0.00000000
Si      -2.37110724      -2.79269244      -1.00430728       0.00000000
Si       3.67688106       0.06949314      -1.03369238       0.00000000
