10
Lattice="16.28999089631971 0.0 0.0 0.0 16.28999089631971 0.0 0.0 0.0 34.5300574570662" Properties=species:S:1:pos:R:3:initial_magmoms:R:1 pbc="T T T"
Si       1.75081662      -0.50049396       1.58441257       0.00000000
Si       1.48020714       0.17656731      -1.90519698       0.00000000
Si      -1.65333726      -1.78391790       0.26408603       0.00000000
Si      -1.35804843       1.95111846       0.62533969       0.00000000
Si       2.31883263       2.02061160      -0.40835269       0.00000000
Si       0.58261185      -1.51449759       3.40884371       0.00000000
Si      -1.52203986      -2.33626293       2.56889959       0.00000000
Si       3.25122336      -1.96874424       0.39540391       0.00000000
Si      -0.13116708      -1.50936624      -3.52479570       0.00000000
Si      -3.72915567      -0.84157398      -0.37896759       0.00000000
