10
Lattice="16.28999089631971 0.0 0.0 0.0 16.28999089631971 0.0 0.0 0.0 34.5300574570662" Properties=species:S:1:pos:R:3:initial_magmoms:R:1 pbc="T T T"
Si      -0.12776247      -2.29881222      -0.28380270       0.00000000
Si      -1.75985757       1.06878690       1.18451975       0.00000000
Si      -0.16428465       1.31489622      -1.98941584       0.00000000
Si       2.24334477       0.49388022       0.72050458       0.00000000
Si      -0.68629770       3.15046971       0.82060727       0.00000000
Si       1.74208518       0.79070031       3.00342608       0.00000000
Si       0.94319100       3.30164091      -0.96124828       0.00000000
Si      -2.52556902       1.25131635      -2.22870927       0.00000000
Si      -3.63981968       0.89425584      -0.17593074       0.00000000
Si       1.94805594      -3.24115614       0.35925092       0.00000000
