10
Lattice="16.28999089631971 0.0 0.0 0.0 16.28999089631971 0.0 0.0 0.0 34.5300574570662" Properties=species:S:1:pos:R:3:initial_magmoms:R:1 pbc="T T T"
Si      -1.37042883      -1.33107219       1.39898606       0.00000000
Si       1.34747622       1.38517128       1.39743221       0.00000000
Si      -1.48929696       1.28873448      -1.36359618       0.00000000
Si       1.29976281      -1.61288919      -1.62171887       0.00000000
Si       2.67794568      -2.69998605       0.03354597       0.00000000
Si      -2.72124450      -2.67660990       0.02160892       0.00000000
Si       2.68493409       2.72199384       0.00641224       0.00000000
Si      -2.72126079       2.73178413       0.04167780       0.00000000
Si      -0.01203831      -2.69368182       2.75957467       0.00000000
Si       2.70244584       0.02210553       2.75822800       0.00000000
