10
Lattice="16.28999089631971 0.0 0.0 0.0 16.28999089631971 0.0 0.0 0.0 34.5300574570662" Properties=species:S:1:pos:R:3:initial_magmoms:R:1 pbc="T T T"
Si      -1.35858600      -1.35588186       1.35675578       0.00000000
Si       1.35755973      -1.35744570      -1.35772262       0.00000000
Si       1.35726651       1.35827649       1.35786074       0.00000000
Si      -1.35920502       1.35874890      -1.35741185       0.00000000
Si      -2.71324611      -0.00200367       2.71147428       0.00000000
Si      -0.00346977      -2.71238274       2.71509994       0.00000000
Si       2.71479366      -2.71456560      -0.00037983       0.00000000
Si      -2.71531494      -2.71430496      -0.00017265       0.00000000
Si       2.71326240      -0.00136836      -2.71651567       0.00000000
Si      -0.00128691       2.71526720      -2.71492728       0.00000000
