10
Lattice="16.28999089631971 0.0 0.0 0.0 16.28999089631971 0.0 0.0 0.0 34.5300574570662" Properties=species:S:1:pos:R:3:initial_magmoms:R:1 pbc="T T T"
Si       1.42441389      -0.07514251      -1.85008698       0.00000000
Si      -0.32858559      -2.20351965       0.76781079       0.00000000
Si      -1.89680271       0.93045059      -1.06445868       0.00000000
Si       0.79679277       1.66650284       1.52035928       0.00000000
Si      -1.59250551      -3.13406961      -1.02771867       0.00000000
Si      -2.21524289       2.93164940       0.17710476       0.00000000
Si       3.55539024       0.05893722      -0.94339623       0.00000000
Si      -1.16263522       2.59169339       2.36385999       0.00000000
Si       1.89592794      -3.03553140       0.95741544       0.00000000
Si       0.64733202       1.34361875      -3.52728187       0.00000000
