10
Lattice="16.28999089631971 0.0 0.0 0.0 16.28999089631971 0.0 0.0 0.0 34.5300574570662" Properties=species:S:1:pos:R:3:initial_magmoms:R:1 pbc="T T T"
Si      -1.11101058      -1.13518398      -1.80419651       0.00000000
Si      -1.90907397       0.86746693       1.26380081       0.00000000
Si       1.36270737      -1.55131203       1.44280473       0.00000000
Si       1.43795088       1.41384983      -1.70609656       0.00000000
Si      -2.28503088      -2.53082973      -0.30559118       0.00000000
Si      -2.49992856       2.81591383      -0.08180175       0.00000000
Si      -3.50938728      -0.99860062       1.09077059       0.00000000
Si       1.72012626      -0.19045616       3.45097040       0.00000000
Si       3.05851266      -2.47270701      -0.13677363       0.00000000
Si       2.34901800       1.89842845       2.52456297       0.00000000
