10
Lattice="16.28999089631971 0.0 0.0 0.0 16.28999089631971 0.0 0.0 0.0 34.5300574570662" Properties=species:S:1:pos:R:3:initial_magmoms:R:1 pbc="T T T"
Si      -1.23131223       1.45811790       1.33217036       0.00000000
Si       1.37960010      -0.86706783       1.73337532       0.00000000
Si       1.57165920       1.36827855      -1.18455428       0.00000000
Si      -1.43063667      -1.60539579      -1.06635783       0.00000000
Si       0.73847457       2.75876037       1.72636572       0.00000000
Si      -0.51956955      -1.12081716       3.16430170       0.00000000
Si       2.46677841      -2.38298265       0.18998448       0.00000000
Si      -2.58217677      -0.02686221      -2.54082664       0.00000000
Si       0.12422754      -2.72675867      -2.55225609       0.00000000
Si       0.16073343       2.72033226      -2.56047425       0.00000000
