10
Lattice="16.28999089631971 0.0 0.0 0.0 16.28999089631971 0.0 0.0 0.0 34.5300574570662" Properties=species:S:1:pos:R:3:initial_magmoms:R:1 pbc="T T T"
Si       1.32352992       1.36471104       1.32861376       0.00000000
Si       1.35001746      -1.35695700      -1.35727373       0.00000000
Si      -1.36285398       1.35702216      -1.35654860       0.00000000
Si      -1.36011726      -1.37759643       1.37951110       0.00000000
Si      -0.04005711       2.66206293       2.68799382       0.00000000
Si       2.69944848       0.07855038       2.66088771       0.00000000
Si       2.71033020      -2.71407690       0.00801098       0.00000000
Si       2.70573642       2.71902906       0.00003453       0.00000000
Si       2.71024875       0.00047241      -2.71492728       0.00000000
Si      -0.00529425      -2.71451673      -2.71523806       0.00000000
