10
Lattice="16.28999089631971 0.0 0.0 0.0 16.28999089631971 0.0 0.0 0.0 34.5300574570662" Properties=species:S:1:pos:R:3:initial_magmoms:R:1 pbc="T T T"
Si       1.35360126      -1.35508365       1.35903476       0.00000000
Si      -1.35584928       1.35314514       1.35903476       0.00000000
Si       1.35783666       1.35641943      -1.35644501       0.00000000
Si      -1.35710361      -1.35853713      -1.35620329       0.00000000
Si      -0.02860524      -2.70940167       2.68761399       0.00000000
Si      -2.70179424       0.00047241       2.71744798       0.00000000
Si       2.71363707       2.71179630       0.00148479       0.00000000
Si       0.00068418       2.71350675      -2.71389138       0.00000000
Si      -2.71433754      -0.00141723      -2.71354608       0.00000000
Si       2.71485882      -0.00100998      -2.71392591       0.00000000
