10
Lattice="16.28999089631971 0.0 0.0 0.0 16.28999089631971 0.0 0.0 0.0 34.5300574570662" Properties=species:S:1:pos:R:3:initial_magmoms:R:1 pbc="T T T"
Si      -1.80610488      -1.41631776       0.32958958       0.00000000
Si      -0.43135920       2.16899721      -0.77523475       0.00000000
Si       1.56946005      -1.11679353      -1.33476012       0.00000000
Si       1.19566971       0.61483347       1.98796558       0.00000000
Si       1.83327660       2.65051332      -1.35886211       0.00000000
Si      -2.33168544      -0.88091433       2.53872030       0.00000000
Si       2.61715140       0.68919732      -2.40122154       0.00000000
Si       3.27238407      -0.44567811       1.52598768       0.00000000
Si      -0.77234148      -3.53422953       0.59519493       0.00000000
Si      -0.34112889      -0.17936919       3.65680419       0.00000000
