10
Lattice="16.28999089631971 0.0 0.0 0.0 16.28999089631971 0.0 0.0 0.0 34.5300574570662" Properties=species:S:1:pos:R:3:initial_magmoms:R:1 pbc="T T T"
Si       1.35761748       1.35821133       1.35754997       0.00000000
Si      -1.35797343       1.35697329      -1.35889664       0.00000000
Si       1.35739594      -1.35843287      -1.35841322       0.00000000
Si      -1.35803859      -1.35979798       1.35723920       0.00000000
Si       2.71130834       0.00231318       2.71741345       0.00000000
Si       2.71445231       2.71482624      -0.00093231       0.00000000
Si       2.71441973      -2.71488230      -0.00117402       0.00000000
Si       2.71490843      -0.00061902      -2.71478916       0.00000000
Si      -2.71481640       2.71500543      -0.00027624       0.00000000
Si      -0.00108159      -2.71211300       2.71813858       0.00000000
