10
Lattice="16.28999089631971 0.0 0.0 0.0 16.28999089631971 0.0 0.0 0.0 34.5300574570662" Properties=species:S:1:pos:R:3:initial_magmoms:R:1 pbc="T T T"
Si       1.36549296       1.35156501      -1.36304025       0.00000000
Si      -1.35003375      -1.36741518      -1.36331649       0.00000000
Si      -1.40634828       1.27255851       1.40116145       0.00000000
Si       1.43138601      -1.27221642       1.40326779       0.00000000
Si       2.69747739       2.70022944       0.01336314       0.00000000
Si      -2.69597871      -2.72008791      -0.00490327       0.00000000
Si       0.00562005       2.70699142      -2.72062475       0.00000000
Si      -2.70881523      -0.00625536      -2.72031398       0.00000000
Si      -2.71740006       2.71498981       0.01602196       0.00000000
Si       2.72629440      -2.71189404       0.00956483       0.00000000
