10
Lattice="16.28999089631971 0.0 0.0 0.0 16.28999089631971 0.0 0.0 0.0 34.5300574570662" Properties=species:S:1:pos:R:3:initial_magmoms:R:1 pbc="T T T"
Si       1.07509113       0.67170186       1.95419516       0.00000000
Si       1.55486421      -1.17797877      -1.46880587       0.00000000
Si      -1.40603877       1.78875603      -1.06010789       0.00000000
Si      -0.21204693      -2.22076683      -2.63523187       0.00000000
Si       2.24169948       2.76827373       0.68828802       0.00000000
Si      -0.87125436       0.89422326       3.41775247       0.00000000
Si       1.19713581      -3.14814024       1.50012465       0.00000000
Si       2.60571582       0.63962685      -2.55660688       0.00000000
Si      -2.79709074       0.48549087      -2.46938391       0.00000000
Si       2.03576130      -1.30409595       2.99696895       0.00000000
