10
Lattice="16.28999089631971 0.0 0.0 0.0 16.28999089631971 0.0 0.0 0.0 34.5300574570662" Properties=species:S:1:pos:R:3:initial_magmoms:R:1 pbc="T T T"
Si      -0.00506619      -2.23656813       0.80006188       0.00000000
Si      -1.92977856       0.58363812      -1.32775051       0.00000000
Si      -0.52012341       1.30783355       1.97232345       0.00000000
Si       2.26663947      -0.04294044      -0.93687004       0.00000000
Si      -2.76900678       0.71306217       2.26679595       0.00000000
Si      -1.24833528       2.70021641      -2.17218354       0.00000000
Si       1.34804637       1.10804580       3.34641333       0.00000000
Si       2.52395631       2.01417120      -1.99811742       0.00000000
Si       1.40535459      -2.27838456       2.77963665       0.00000000
Si      -3.73511781       0.97704162       0.10697418       0.00000000
