10
Lattice="16.28999089631971 0.0 0.0 0.0 16.28999089631971 0.0 0.0 0.0 34.5300574570662" Properties=species:S:1:pos:R:3:initial_magmoms:R:1 pbc="T T T"
Si       0.49844142      -2.29538385      -0.14723625       0.00000000
Si       1.82670751       0.18919695      -1.49404736       0.00000000
Si       0.25189227       0.65265233       2.32798324       0.00000000
Si      -0.26349075       1.05182738      -2.57922408       0.00000000
Si      -1.35066906       2.56774220      -1.03583324       0.00000000
Si      -2.03870979       0.09088354       2.85225340       0.00000000
Si       1.63119477      -1.19608578       3.01198954       0.00000000
Si       2.88509976      -2.27471184      -0.43273092       0.00000000
Si       0.66661938      -3.09439206       1.98468522       0.00000000
Si      -2.54034405      -2.05714260      -2.26624347       0.00000000
