10
Lattice="16.28999089631971 0.0 0.0 0.0 16.28999089631971 0.0 0.0 0.0 34.5300574570662" Properties=species:S:1:pos:R:3:initial_magmoms:R:1 pbc="T T T"
Si      -0.07943004      -0.43160355       2.35505482       0.00000000
Si       2.29427450       0.70349994      -0.40472703       0.00000000
Si      -0.82314999      -2.14829751      -0.84774791       0.00000000
Si      -1.54523682       1.77152121      -0.83037929       0.00000000
Si       2.57586344       1.69847685       1.83855394       0.00000000
Si      -2.34468486      -0.84005901       2.84952552       0.00000000
Si      -3.66352326       0.71594550      -0.87005434       0.00000000
Si       0.78161116       1.50498423       3.44147463       0.00000000
Si      -3.75124491      -0.83245158       0.93144882       0.00000000
Si      -1.40050017       1.82575062      -3.24610346       0.00000000
