10
Lattice="16.28999089631971 0.0 0.0 0.0 16.28999089631971 0.0 0.0 0.0 34.5300574570662" Properties=species:S:1:pos:R:3:initial_magmoms:R:1 pbc="T T T"
Si      -1.35729909       1.35632169       1.36335102       0.00000000
Si       1.36018242      -1.35860229       1.36200435       0.00000000
Si      -1.35552348      -1.36295172      -1.38567472       0.00000000
Si       1.36832385       1.35733167      -1.38036744       0.00000000
Si      -2.70954828       2.71287144       0.00466156       0.00000000
Si      -2.71137276      -2.71349046       0.00214086       0.00000000
Si       2.71711403       2.71164969       0.00110496       0.00000000
Si      -2.71228500      -0.00058644       2.72055569       0.00000000
Si       0.00188964       2.71391400       2.72017586       0.00000000
Si       0.00210141      -2.71616202       2.72007227       0.00000000
