10
Lattice="16.28999089631971 0.0 0.0 0.0 16.28999089631971 0.0 0.0 0.0 34.5300574570662" Properties=species:S:1:pos:R:3:initial_magmoms:R:1 pbc="T T T"
Si      -1.35584928      -1.35053874       1.38781558       0.00000000
Si       1.35552348       1.36295172       1.38567472       0.00000000
Si      -1.44603072       1.38815235      -1.36537448       0.00000000
Si       1.40349753      -1.28695887      -1.53540058       0.00000000
Si       2.71119357      -2.70238068      -0.01066979       0.00000000
Si      -2.71604799      -2.71024875       0.01565594       0.00000000
Si      -2.71270854       2.72960127       0.05335587       0.00000000
Si       2.72384733       2.72028339       0.00530727       0.00000000
Si       0.00032580      -2.70980892       2.74798983       0.00000000
Si       2.71570590       0.00434943       2.74767906       0.00000000
