10
Lattice="16.28999089631971 0.0 0.0 0.0 16.28999089631971 0.0 0.0 0.0 34.5300574570662" Properties=species:S:1:pos:R:3:initial_magmoms:R:1 pbc="T T T"
Si       1.35723786       1.35778779       1.35824057       0.00000000
Si      -1.35808101      -1.35755973       1.35806792       0.00000000
Si      -1.36018242       1.35860229      -1.36200435       0.00000000
Si       1.36041930      -1.36186029      -1.35886211       0.00000000
Si      -2.71538010      -2.71415835       0.00031077       0.00000000
Si       2.71480085      -2.71515204       0.00217539       0.00000000
Si       2.71434473       0.00029322       2.71603225       0.00000000
Si      -0.00016290       2.71471221       2.71620490       0.00000000
Si      -0.00010758      -2.71453302       2.71696456       0.00000000
Si      -2.71492398       0.00047241       2.71668832       0.00000000
