10
Lattice="16.28999089631971 0.0 0.0 0.0 16.28999089631971 0.0 0.0 0.0 34.5300574570662" Properties=species:S:1:pos:R:3:initial_magmoms:R:1 pbc="T T T"
Si       1.01788065       2.04307551      -0.72851556       0.00000000
Si      -0.10290393       0.14108769       2.40760960       0.00000000
Si      -2.24927433       0.35932482      -0.85776164       0.00000000
Si       0.79022790      -2.16072189      -0.93818219       0.00000000
Si      -1.32805854      -3.21629760      -0.97785724       0.00000000
Si      -1.79677071       1.23404895      -3.12334903       0.00000000
Si      -0.02635722       3.76134471       0.63303990       0.00000000
Si      -3.26958219      -1.75964580      -0.97157277       0.00000000
Si       0.01443294       2.70653463      -2.81872470       0.00000000
Si       1.87460433      -0.41474340       3.54423614       0.00000000
