10
Lattice="16.28999089631971 0.0 0.0 0.0 16.28999089631971 0.0 0.0 0.0 34.5300574570662" Properties=species:S:1:pos:R:3:initial_magmoms:R:1 pbc="T T T"
Si       2.05014604       1.10283300       0.42461635       0.00000000
Si      -1.44298449      -0.16509915      -1.90046636       0.00000000
Si      -1.73967426      -0.53234091       1.76490128       0.00000000
Si      -0.29087424       1.80315639       1.85347093       0.00000000
Si      -3.43409490      -0.82619622      -0.75948904       0.00000000
Si       1.14831468       0.48363381       3.41378151       0.00000000
Si       2.62570921      -2.31902811      -1.24449850       0.00000000
Si       3.79538171      -0.53295993      -0.01477887       0.00000000
Si       2.52733390       2.64891690      -1.31787491       0.00000000
Si      -1.93635972       1.93170078      -2.84935287       0.00000000
