10
Lattice="16.28999089631971 0.0 0.0 0.0 16.28999089631971 0.0 0.0 0.0 34.5300574570662" Properties=species:S:1:pos:R:3:initial_magmoms:R:1 pbc="T T T"
Si       1.65447756       1.19868336       1.28299405       0.00000000
Si      -1.84068855       0.99342936      -1.23887009       0.00000000
Si      -1.31346270      -1.51195635       1.45386613       0.00000000
Si       1.34931699      -1.31196402      -1.62056556       0.00000000
Si       1.08359451       0.98328069      -3.23937009       0.00000000
Si       0.14621904       2.52602514       2.82158521       0.00000000
Si       2.78850591      -2.63148660      -0.06025498       0.00000000
Si      -2.58014052      -0.17050743       2.87259649       0.00000000
Si      -2.64083706      -0.74904678      -2.74514110       0.00000000
Si      -3.00022704       2.65250070       0.20900749       0.00000000
