10
Lattice="16.28999089631971 0.0 0.0 0.0 16.28999089631971 0.0 0.0 0.0 34.5300574570662" Properties=species:S:1:pos:R:3:initial_magmoms:R:1 pbc="T T T"
Si       1.35291708       1.34226342      -1.36913826       0.00000000
Si      -1.35368271       1.35246096       1.36145187       0.00000000
Si       1.36105199      -1.35953082       1.35948365       0.00000000
Si      -1.34084619      -1.36995642      -1.38709390       0.00000000
Si      -2.71018359       2.70974376      -0.00248617       0.00000000
Si       0.00306252       2.71147050       2.71679191       0.00000000
Si      -2.70852201      -2.72026710       0.00089778       0.00000000
Si      -2.71207323      -0.00413766       2.71675738       0.00000000
Si       2.72105621       2.70982521      -0.00024171       0.00000000
Si       2.71826899      -0.00350235       2.71717174       0.00000000
