10
Lattice="16.28999089631971 0.0 0.0 0.0 16.28999089631971 0.0 0.0 0.0 34.5300574570662" Properties=species:S:1:pos:R:3:initial_magmoms:R:1 pbc="T T T"
Si       1.34716671       1.35607801       1.38845784       0.00000000
Si      -1.36590021      -1.36039419       1.38959733       0.00000000
Si       1.45411056      -1.34348517      -1.44797733       0.00000000
Si      -1.36283769       1.41048172      -1.47886103       0.00000000
Si       2.70097974       2.72138201      -0.00802479       0.00000000
Si       2.69720046      -2.72787453       0.02294524       0.00000000
Si      -2.72626182       2.71351394       0.01830094       0.00000000
Si      -2.72619666      -2.71652040       0.03126698       0.00000000
Si       2.70565497      -0.00280188       2.75132544       0.00000000
Si      -0.00988803       2.71395377       2.75063484       0.00000000
