10
Lattice="16.28999089631971 0.0 0.0 0.0 16.28999089631971 0.0 0.0 0.0 34.5300574570662" Properties=species:S:1:pos:R:3:initial_magmoms:R:1 pbc="T T T"
Si       1.31121468      -1.38680028       1.34936634       0.00000000
Si      -1.34262180      -1.37028222      -1.36987720       0.00000000
Si       1.37398005       1.35076680      -1.36666591       0.00000000
Si      -1.44202338       1.32489828       1.45419965       0.00000000
Si       2.44710891       0.23314248       2.64514200       0.00000000
Si      -2.69249265      -2.71529865       0.00258976       0.00000000
Si      -2.72130966       2.69682483       0.00638806       0.00000000
Si      -2.69933445      -0.01216863      -2.72784153       0.00000000
Si       0.01702305       2.70308182      -2.72756529       0.00000000
Si       2.72249136       2.71162593       0.01212006       0.00000000
