10
Lattice="16.28999089631971 0.0 0.0 0.0 16.28999089631971 0.0 0.0 0.0 34.5300574570662" Properties=species:S:1:pos:R:3:initial_magmoms:R:1 pbc="T T T"
Si       0.27453537       1.79838342      -1.44463482       0.00000000
Si       0.78387480      -1.96131600      -1.04235943       0.00000000
Si       1.13652072       0.90868878       1.86058413       0.00000000
Si      -2.26463580      -0.48151611       0.58362736       0.00000000
Si      -1.83327660      -2.65051332       1.35886211       0.00000000
Si      -2.24321445       0.99276147       2.51019846       0.00000000
Si      -0.40563729       3.53207992      -0.06198149       0.00000000
Si      -0.24127119       0.27943866       3.61978795       0.00000000
Si       3.37086919       0.24464322       1.67702224       0.00000000
Si      -0.39410397      -2.07529713      -3.12980616       0.00000000
