10
Lattice="16.28999089631971 0.0 0.0 0.0 16.28999089631971 0.0 0.0 0.0 34.5300574570662" Properties=species:S:1:pos:R:3:initial_magmoms:R:1 pbc="T T T"
Si      -0.99924489       2.05045488      -0.27748370       0.00000000
Si       2.32907904       0.19064187      -0.32403024       0.00000000
Si      -1.21901328      -1.92775860      -0.78928849       0.00000000
Si       1.39305564       0.20458611       1.97825714       0.00000000
Si      -0.17506863      -1.03491999       3.23073554       0.00000000
Si      -2.73025287       1.07813736      -1.77052969       0.00000000
Si      -1.83368385      -2.19396978       1.98264488       0.00000000
Si      -3.48128703      -1.03347018      -0.92841017       0.00000000
Si       2.59437798       1.26903987      -2.54624786       0.00000000
Si       3.38367735      -1.89822483      -0.42140506       0.00000000
