10
Lattice="16.28999089631971 0.0 0.0 0.0 16.28999089631971 0.0 0.0 0.0 34.5300574570662" Properties=species:S:1:pos:R:3:initial_magmoms:R:1 pbc="T T T"
Si       1.35081567       1.34553771       1.37737714       0.00000000
Si      -1.36259334      -1.37430585       1.37561610       0.00000000
Si       1.54163673      -1.26700362      -1.29146976       0.00000000
Si      -1.41886714       1.30000716      -1.44015972       0.00000000
Si      -2.23112727      -0.28626417      -3.04172826       0.00000000
Si       2.72124450       2.67660990      -0.02160892       0.00000000
Si      -2.72781656       2.68944642       0.00913666       0.00000000
Si      -0.00547344       2.70125667       2.73741327       0.00000000
Si      -2.71138351      -2.72862387      -0.00585630       0.00000000
Si       2.70920619      -0.01707192       2.73796575       0.00000000
