10
Lattice="16.28999089631971 0.0 0.0 0.0 16.28999089631971 0.0 0.0 0.0 34.5300574570662" Properties=species:S:1:pos:R:3:initial_magmoms:R:1 pbc="T T T"
Si      -1.35369085       1.35589815      -1.35986348       0.00000000
Si       1.36101321      -1.35947381      -1.36045049       0.00000000
Si       1.36182771       1.35922131       1.37046422       0.00000000
Si      -1.36387862      -1.35356705       1.37951110       0.00000000
Si      -2.71357152       2.71208952      -0.00006906       0.00000000
Si      -2.71238993      -2.71442618       0.00072513       0.00000000
Si      -2.71130834      -0.00231318      -2.71741345       0.00000000
Si       0.00314397       2.71251306      -2.71834576       0.00000000
Si       2.71870326       2.71355562      -0.00448891       0.00000000
Si       2.71800279      -2.71735838       0.00183009       0.00000000
