10
Lattice="16.28999089631971 0.0 0.0 0.0 16.28999089631971 0.0 0.0 0.0 34.5300574570662" Properties=species:S:1:pos:R:3:initial_magmoms:R:1 pbc="T T T"
Si       1.33583701       1.34684091      -1.38216991       0.00000000
Si      -1.44482430       1.32998076       1.34087194       0.00000000
Si      -1.37972946      -1.36764324      -1.37219072       0.00000000
Si       1.38345268      -1.33058349       1.52619486       0.00000000
Si      -0.67394662      -2.09306952       2.68733775       0.00000000
Si      -2.49166857      -0.37139571       2.61579143       0.00000000
Si       2.65672795      -2.71181259      -0.01688521       0.00000000
Si       2.70950756       2.66993100      -0.01160211       0.00000000
Si       2.69049712      -0.00703728      -2.73688841       0.00000000
Si      -0.02258446       2.70676269      -2.73671576       0.00000000
