10
Lattice="16.28999089631971 0.0 0.0 0.0 16.28999089631971 0.0 0.0 0.0 34.5300574570662" Properties=species:S:1:pos:R:3:initial_magmoms:R:1 pbc="T T T"
Si      -1.35628911       1.35571896       1.36003613       0.00000000
Si      -1.35081567      -1.34553771      -1.37737714       0.00000000
Si       1.35839052      -1.36260963       1.36058861       0.00000000
Si       1.37042883       1.33107219      -1.39898606       0.00000000
Si       0.19082106      -2.61254133      -2.66884690       0.00000000
Si      -0.11886813       2.61980667      -2.76258224       0.00000000
Si      -2.71049310       2.71147050       0.00065607       0.00000000
Si      -2.71328032      -0.00185706       2.71806952       0.00000000
Si       0.00040725       2.71329498       2.71834576       0.00000000
Si      -2.71340901      -2.71984356      -0.00176103       0.00000000
