10
Lattice="16.28999089631971 0.0 0.0 0.0 16.28999089631971 0.0 0.0 0.0 34.5300574570662" Properties=species:S:1:pos:R:3:initial_magmoms:R:1 pbc="T T T"
Si       1.35966114       1.35138582      -1.35796433       0.00000000
Si       1.35420399      -1.35575154       1.35938006       0.00000000
Si      -1.35968462       1.35751086       1.35948365       0.00000000
Si      -1.36813913      -1.36756179      -1.36889655       0.00000000
Si       2.59162497      -0.09166383      -2.76323832       0.00000000
Si       2.71049310      -2.71147050      -0.00065607       0.00000000
Si       2.70731655       2.71863714       0.00345301       0.00000000
Si       2.71090035       0.00182448       2.71768969       0.00000000
Si      -0.00278722      -2.71332756       2.71741345       0.00000000
Si      -2.72105621      -2.70982521       0.00024171       0.00000000
