10
Lattice="16.28999089631971 0.0 0.0 0.0 16.28999089631971 0.0 0.0 0.0 34.5300574570662" Properties=species:S:1:pos:R:3:initial_magmoms:R:1 pbc="T T T"
Si       0.51700876      -2.24546247       0.13922527       0.00000000
Si      -0.32272282       0.51908085      -2.24997980       0.00000000
Si      -2.38665834      -0.02067201       0.28549467       0.00000000
Si       0.75459841       1.14214077       2.21065004       0.00000000
Si      -1.05839225       2.46390878      -1.06131644       0.00000000
Si      -2.21848038      -0.81968022       2.41741614       0.00000000
Si      -0.59724190      -2.60252298       2.19200380       0.00000000
Si       2.87829313      -2.18188260       0.37851870       0.00000000
Si      -2.88509976       2.27471184       0.43273092       0.00000000
Si      -1.25390499       1.07862606       3.44472046       0.00000000
