10
Lattice="16.290000149 0.0 0.0 0.0 16.290000149 0.0 0.0 0.0 29.1751946751" Properties=species:S:1:pos:R:3:initial_magmoms:R:1 pbc="T T T"
Si       1.22319982      -1.53150436       1.24350515       0.00000000
Si      -1.38678400      -1.35223291      -1.29383236       0.00000000
Si      -1.05854050       1.46495971       1.47871557       0.00000000
Si       1.37482714       1.31893615      -1.35822201       0.00000000
Si       0.75652390       2.21957768       2.86302020       0.00000000
Si      -2.37190547       0.10749771       2.86494577       0.00000000
Si      -0.02013444       2.60196914      -2.71825289       0.00000000
Si      -0.02689479      -2.70001865      -2.62842246       0.00000000
Si      -2.50532057       2.81665506       0.19462772       0.00000000
Si      -2.74203057       0.00532683      -2.59796356       0.00000000
