10
Lattice="16.290000149 0.0 0.0 0.0 16.290000149 0.0 0.0 0.0 29.1751946751" Properties=species:S:1:pos:R:3:initial_magmoms:R:1 pbc="T T T"
Si       1.08282889      -1.41998302      -1.49808790       0.00000000
Si      -1.54525312       1.32480055      -1.18471713       0.00000000
Si      -1.05541282      -1.76239883       1.18185796       0.00000000
Si       2.12716451       0.96966226       0.67946111       0.00000000
Si       0.21851406       0.80707177       3.38724010       0.00000000
Si       2.37760697      -2.71386515      -0.07139170       0.00000000
Si      -0.20150730       2.70304859      -2.49835945       0.00000000
Si       2.49802265      -0.09353718      -2.73669161       0.00000000
Si      -1.40312287      -0.87944824       3.31649025       0.00000000
Si       0.54630144      -3.53921430       1.09275692       0.00000000
