10
Lattice="16.290000149 0.0 0.0 0.0 16.290000149 0.0 0.0 0.0 29.1751946751" Properties=species:S:1:pos:R:3:initial_magmoms:R:1 pbc="T T T"
Si      -1.35321031      -1.31549896       1.39914606       0.00000000
Si       1.34755768       1.36888129       1.36113078       0.00000000
Si      -1.37116189       1.35119035      -1.36536118       0.00000000
Si       1.42351795      -1.37738467      -1.29205559       0.00000000
Si      -2.66965409      -2.65756691       0.00326762       0.00000000
Si      -2.54560574      -0.11653866      -2.81669875       0.00000000
Si       2.66719430       0.01420488      -2.70668279       0.00000000
Si       2.71427240       2.72303642       0.01354021       0.00000000
Si      -0.00042354      -2.68203449       2.75544251       0.00000000
Si       2.80007184      -2.63824697       0.12648030       0.00000000
