10
Lattice="16.290000149 0.0 0.0 0.0 16.290000149 0.0 0.0 0.0 29.1751946751" Properties=species:S:1:pos:R:3:initial_magmoms:R:1 pbc="T T T"
Si       1.31681845       1.35848827       1.34286127       0.00000000
Si      -1.37655388       1.26086230      -1.41853589       0.00000000
Si       1.28409184      -1.45354042      -1.32435545       0.00000000
Si      -1.42366456      -1.39360951       1.27946357       0.00000000
Si      -2.17823366      -0.59781043      -2.60733930       0.00000000
Si      -0.54662724      -2.33451992      -2.52096147       0.00000000
Si       2.62389548       2.65439036      -0.12261167       0.00000000
Si       2.63658539      -0.03422529       2.68101075       0.00000000
Si      -0.10134009       2.68912064       2.64425001       0.00000000
Si       2.54479124      -2.82229140       0.07805532       0.00000000
