10
Lattice="16.290000149 0.0 0.0 0.0 16.290000149 0.0 0.0 0.0 29.1751946751" Properties=species:S:1:pos:R:3:initial_magmoms:R:1 pbc="T T T"
Si      -2.30762513      -0.08824782       0.35850479       0.00000000
H       -0.90611497       1.56414952      -1.49505368       0.00000000
Si       0.97440265      -0.40378838      -2.15260421       0.00000000
Si       1.02330523       2.15164838       0.39109348       0.00000000
Si       0.05598873      -2.06842277       1.28779309       0.00000000
H       -2.92250748       1.21554352      -0.08425796       0.00000000
Si       2.84193714       1.25884234       1.53581142       0.00000000
Si       2.89209405      -1.46596155      -1.37610641       0.00000000
Si       3.53119962      -0.78995749       0.76987504       0.00000000
Si      -3.15436305      -1.75014875      -1.03671137       0.00000000
