10
Lattice="16.290000149 0.0 0.0 0.0 16.290000149 0.0 0.0 0.0 29.1751946751" Properties=species:S:1:pos:R:3:initial_magmoms:R:1 pbc="T T T"
Si       1.41815854      -1.33063237      -1.30138873       0.00000000
Si       1.37455021       1.32651100       1.36245242       0.00000000
Si      -1.35092971      -1.37635840       1.34599761       0.00000000
Si      -1.35117406       1.31800762      -1.40959953       0.00000000
Si       0.10134009      -2.68912064      -2.64425001       0.00000000
Si       0.00508248       2.70519887       2.68464306       0.00000000
Si       2.75403630       2.64635939       0.00020423       0.00000000
Si      -2.72077211      -0.01280394       2.68181307       0.00000000
Si      -2.71362080       2.69159672      -0.06004255       0.00000000
Si       0.01554066       2.67216275      -2.75719010       0.00000000
