10
Lattice="16.290000149 0.0 0.0 0.0 16.290000149 0.0 0.0 0.0 29.1751946751" Properties=species:S:1:pos:R:3:initial_magmoms:R:1 pbc="T T T"
Si      -0.92111806       1.03496887      -1.83710366       0.00000000
Si       1.04044231       1.77054383       1.08770961       0.00000000
Si       1.34535853      -1.54083853      -1.15434575       0.00000000
Si      -1.93334609      -1.04195728       0.90478114       0.00000000
H        0.51186438      -1.30007233       2.45544273       0.00000000
H        2.66512547       1.05507073       0.64631809       0.00000000
Si       0.69607171      -2.66652804       1.80051796       0.00000000
Si      -1.68927302      -1.01315656      -2.71323475       0.00000000
Si      -0.46092555      -2.87862385      -1.75681352       0.00000000
Si      -2.23003586       2.53322534      -0.52492010       0.00000000
