10
Lattice="16.290000149 0.0 0.0 0.0 16.290000149 0.0 0.0 0.0 29.1751946751" Properties=species:S:1:pos:R:3:initial_magmoms:R:1 pbc="T T T"
Si       1.37503891       1.34306164      -1.34167968       0.00000000
Si       1.36199062      -1.39453804       1.30468553       0.00000000
Si      -1.35485560      -1.35312886      -1.36041015       0.00000000
Si      -1.35241210       1.36976095       1.35078234       0.00000000
Si       0.00584811       2.69081480      -2.68330100       0.00000000
Si       2.78187591      -0.08449623       2.61867795       0.00000000
Si      -2.74139526       0.01014867       2.66407455       0.00000000
Si       0.01277136      -2.75248875       2.65783106       0.00000000
Si       0.01461213      -2.73181673      -2.68260080       0.00000000
Si       0.02445129       2.73571005       2.68732718       0.00000000
