10
Lattice="16.290000149 0.0 0.0 0.0 16.290000149 0.0 0.0 0.0 29.1751946751" Properties=species:S:1:pos:R:3:initial_magmoms:R:1 pbc="T T T"
Si       1.05880114      -1.10109487      -0.05432421       0.00000000
Si      -0.26591796       2.57235392       0.79677457       0.00000000
Si      -1.83813104       1.85937320      -0.77069194       0.00000000
Si      -0.25094745       1.15049755       2.76475815       0.00000000
Si      -1.82557145      -0.55620251       2.34402267       0.00000000
H        1.25366212       2.19108647      -1.83374851       0.00000000
Si       2.93023219      -0.20068466       1.06043080       0.00000000
Si      -1.22460076       0.78154534      -2.81940329       0.00000000
Si       0.23117139      -3.03396366       0.95887195       0.00000000
Si      -3.06773283       0.55338760       0.73369780       0.00000000
