10
Lattice="16.290000149 0.0 0.0 0.0 16.290000149 0.0 0.0 0.0 29.1751946751" Properties=species:S:1:pos:R:3:initial_magmoms:R:1 pbc="T T T"
Si       0.61310674       0.51295581      -2.18265466       0.00000000
Si      -2.30115800      -0.06138072       0.45297407       0.00000000
Si       0.76815496       2.04812543       0.87613110       0.00000000
Si       1.22834746      -1.86546729       0.95642123       0.00000000
Si       1.68927302       1.01315656       2.71323475       0.00000000
Si       3.03463155      -0.52768197       1.55888900       0.00000000
Si       1.30236922      -1.53584402      -2.94859105       0.00000000
Si      -0.24407307      -0.02880072       3.61801589       0.00000000
Si      -2.44752365       0.35342784       2.81178856       0.00000000
Si      -3.15921747       2.01782603      -0.33916164       0.00000000
