10
Lattice="16.290000149 0.0 0.0 0.0 16.290000149 0.0 0.0 0.0 29.1751946751" Properties=species:S:1:pos:R:3:initial_magmoms:R:1 pbc="T T T"
Si       1.36733374       1.35816247       1.32910517       0.00000000
Si       1.37148769      -1.35664750      -1.33260619       0.00000000
Si      -1.34338744       1.38311875      -1.34328431       0.00000000
Si      -1.37525068      -1.33643161       1.36186891       0.00000000
Si      -0.07064973       2.69272073       2.61033384       0.00000000
Si      -0.00151497      -2.70433550      -2.67577380       0.00000000
Si      -2.69161301       0.02135619      -2.69362902       0.00000000
Si      -0.02028105      -2.70306488       2.69899726       0.00000000
Si       2.72124452       0.00785178      -2.68969037       0.00000000
Si       2.72091872       2.70945056      -0.03314302       0.00000000
