10
Lattice="16.290000149 0.0 0.0 0.0 16.290000149 0.0 0.0 0.0 29.1751946751" Properties=species:S:1:pos:R:3:initial_magmoms:R:1 pbc="T T T"
Si       1.71665651      -1.63367524      -0.10599348       0.00000000
Si      -2.06011487      -1.00698265      -0.72293215       0.00000000
Si       1.39616704       1.73952767      -0.91414637       0.00000000
Si      -1.00704781       1.24102108       1.84171334       0.00000000
H        0.80244541      -1.46756611      -2.64572335       0.00000000
H       -0.59855977       0.56682685      -3.10176082       0.00000000
Si      -2.36749088       2.64352493       0.52611629       0.00000000
Si       2.16039611      -1.87849766       2.17755309       0.00000000
Si      -3.49045182       0.93211381      -0.71388784       0.00000000
Si       3.57695823      -0.73459756      -1.39439925       0.00000000
