10
Lattice="16.290000149 0.0 0.0 0.0 16.290000149 0.0 0.0 0.0 29.1751946751" Properties=species:S:1:pos:R:3:initial_magmoms:R:1 pbc="T T T"
Si       1.30996036      -1.42749271       1.29730421       0.00000000
Si      -1.35119035      -1.38619756      -1.32280333       0.00000000
Si       1.37577196       1.33030657      -1.35556707       0.00000000
Si      -1.29885058       1.35770635       1.41768106       0.00000000
Si       2.66030363      -0.08451252       2.60957529       0.00000000
Si      -2.66928268       2.70013268       0.06077193       0.00000000
Si       0.00894321       2.68754051      -2.68397203       0.00000000
Si      -2.68984392      -0.02704140      -2.68613100       0.00000000
Si      -2.63015899      -0.04015485       2.75971084       0.00000000
Si       0.03722265      -2.73709469      -2.65631395       0.00000000
