10
Lattice="16.290000149 0.0 0.0 0.0 16.290000149 0.0 0.0 0.0 29.1751946751" Properties=species:S:1:pos:R:3:initial_magmoms:R:1 pbc="T T T"
Si       1.41187712       1.39053070      -1.25669234       0.00000000
Si       1.36579271      -1.34759026       1.37234281       0.00000000
Si      -1.28117202       1.34460919       1.45718427       0.00000000
Si      -1.39135498      -1.28550907      -1.43570841       0.00000000
Si      -2.69365904      -2.64007145      -0.00140041       0.00000000
Si      -2.59839512       2.77969630       0.18243249       0.00000000
Si       0.13267879       2.76388197      -2.64424709       0.00000000
Si       2.74101081       0.07553673      -2.67619101       0.00000000
Si       2.71724370      -2.71712315       0.01347894       0.00000000
Si       0.01901532      -2.69535971       2.74083449       0.00000000
