10
Lattice="16.290000149 0.0 0.0 0.0 16.290000149 0.0 0.0 0.0 29.1751946751" Properties=species:S:1:pos:R:3:initial_magmoms:R:1 pbc="T T T"
H       -1.13891536       0.96472639       0.29253968       0.00000000
H        1.51068900      -1.47621610      -0.63000915       0.00000000
Si       1.48040589       1.20119203      -1.38529659       0.00000000
Si       1.29561213       0.15175764       2.02327058       0.00000000
Si      -1.31607677      -1.70347790      -1.13739496       0.00000000
H       -2.27194677      -0.83585620       2.16415759       0.00000000
Si       2.12557135      -2.78000744      -0.18724640       0.00000000
Si       0.04838945       2.41334723      -2.76951370       0.00000000
Si      -2.60657596      -0.35709309      -2.63714585       0.00000000
Si       0.74885456       2.53421903       2.76496237       0.00000000
