10
Lattice="16.290000149 0.0 0.0 0.0 16.290000149 0.0 0.0 0.0 29.1751946751" Properties=species:S:1:pos:R:3:initial_magmoms:R:1 pbc="T T T"
Si       1.38776140       1.35946567      -1.30407285       0.00000000
Si       1.38204361      -1.34583094       1.33639897       0.00000000
Si      -1.31790988       1.37036368       1.38935195       0.00000000
Si      -1.33090930      -1.34586352      -1.41453014       0.00000000
Si       0.01676241       2.71955036      -2.61783187       0.00000000
Si       0.01352070      -2.68970708       2.67927483       0.00000000
Si      -2.67768669      -2.69363297      -0.04603846       0.00000000
Si      -2.66401124       2.73112115       0.03384323       0.00000000
Si       2.71164971       0.00825903      -2.68919439       0.00000000
Si      -2.69371280       0.02213811       2.73993006       0.00000000
