10
Lattice="16.290000149 0.0 0.0 0.0 16.290000149 0.0 0.0 0.0 29.1751946751" Properties=species:S:1:pos:R:3:initial_magmoms:R:1 pbc="T T T"
Si       1.42951267      -1.22684878      -1.28825990       0.00000000
Si      -1.22319982       1.53150436      -1.24350515       0.00000000
Si       1.48504528       1.01120176       1.47416424       0.00000000
Si      -1.12277197      -1.44217000       1.54812336       0.00000000
H        2.07280478      -2.07049160      -0.20971130       0.00000000
Si      -1.99444988       0.33899490       2.83434099       0.00000000
Si      -0.12326643       1.80291206       2.99716775       0.00000000
Si       2.46268964      -0.85403584       2.36009820       0.00000000
Si      -0.00941562      -2.55748115      -2.49911800       0.00000000
Si       0.69585994      -2.33497604       2.69284129       0.00000000
