10
Lattice="16.290000149 0.0 0.0 0.0 16.290000149 0.0 0.0 0.0 29.1751946751" Properties=species:S:1:pos:R:3:initial_magmoms:R:1 pbc="T T T"
Si       1.33323877       1.34046502      -1.32937066       0.00000000
Si      -1.33071382       1.41956926       1.28685949       0.00000000
Si       1.43280325      -1.34614697       1.26284830       0.00000000
Si      -1.36132273      -1.28134896      -1.41041644       0.00000000
Si       0.05289363      -2.68898055       2.59857624       0.00000000
Si      -2.67991679       0.04661058       2.62448381       0.00000000
Si       2.77915548       0.04209499       2.60231066       0.00000000
Si       0.05431086       2.77046639       2.61182178       0.00000000
Si      -0.03875391      -2.76700965      -2.62051015       0.00000000
Si      -2.71178003      -2.67611145      -0.09910814       0.00000000
