10
Lattice="16.290000149 0.0 0.0 0.0 16.290000149 0.0 0.0 0.0 29.1751946751" Properties=species:S:1:pos:R:3:initial_magmoms:R:1 pbc="T T T"
Si       1.38904668      -1.34905636       1.33033053       0.00000000
Si       1.37580291       1.34822557      -1.35057811       0.00000000
Si      -1.31427024      -1.36661698      -1.39431173       0.00000000
Si      -1.36959968       1.33998283       1.38039516       0.00000000
Si      -2.66211345      -2.71999019      -0.03646899       0.00000000
Si       0.02900760      -2.69925302       2.68408873       0.00000000
Si      -2.70181218       2.70614207       0.00825658       0.00000000
Si       0.02970156       2.70898304      -2.70608683       0.00000000
Si      -2.68285062      -0.01018125      -2.73532038       0.00000000
Si       2.70723350      -2.71184519      -0.06065523       0.00000000
