10
Lattice="16.290000149 0.0 0.0 0.0 16.290000149 0.0 0.0 0.0 29.1751946751" Properties=species:S:1:pos:R:3:initial_magmoms:R:1 pbc="T T T"
Si      -1.37130850       1.34555401       1.33879133       0.00000000
Si      -1.38502468      -1.35089713      -1.32496229       0.00000000
Si       1.36230013      -1.36572103       1.33622392       0.00000000
Si       1.37072206       1.35806473      -1.33823700       0.00000000
Si       0.00700470       2.68118741       2.68333018       0.00000000
Si      -0.05431086      -2.77046639      -2.61182178       0.00000000
Si      -0.00215028      -2.71319401       2.68653945       0.00000000
Si       2.69845481      -0.00099369      -2.70477395       0.00000000
Si      -2.72106533      -0.01894527       2.69587551       0.00000000
Si       2.72215676      -0.02195892       2.69958076       0.00000000
