10
Lattice="16.290000149 0.0 0.0 0.0 16.290000149 0.0 0.0 0.0 29.1751946751" Properties=species:S:1:pos:R:3:initial_magmoms:R:1 pbc="T T T"
Si       1.31644378       1.34206795       1.39587844       0.00000000
Si      -1.35653836       1.34164441      -1.37856296       0.00000000
Si       1.41822370      -1.38137572      -1.28634309       0.00000000
Si      -1.37544453      -1.36019872       1.36153923       0.00000000
Si       0.02955006      -2.65628000      -2.66375479       0.00000000
Si       2.66965409       2.65756691      -0.00326762       0.00000000
Si       0.12404835       2.54102825      -2.81996637       0.00000000
Si       2.62070264      -2.77785228       0.15618357       0.00000000
Si      -2.85852036      -0.04772970      -2.53859525       0.00000000
Si       2.66923055      -0.02446758       2.75217489       0.00000000
