10
Lattice="16.290000149 0.0 0.0 0.0 16.290000149 0.0 0.0 0.0 29.1751946751" Properties=species:S:1:pos:R:3:initial_magmoms:R:1 pbc="T T T"
Si      -1.36044307       1.40250385      -1.31559705       0.00000000
Si       1.17444385       1.46772901       1.45133756       0.00000000
Si      -1.48058671      -1.19938384       1.44140341       0.00000000
Si       1.00704781      -1.24102108      -1.84171334       0.00000000
Si      -1.05306706      -2.24800373      -2.56464549       0.00000000
Si      -2.48340401      -0.30890727      -2.55560118       0.00000000
Si       2.40321485       0.49850658      -2.75585971       0.00000000
Si      -0.12404835      -2.54102825       2.81996637       0.00000000
Si       2.54560574       0.11653866       2.81669875       0.00000000
Si       2.47026449       2.95919256       0.18071757       0.00000000
