10
Lattice="16.290000149 0.0 0.0 0.0 16.290000149 0.0 0.0 0.0 29.1751946751" Properties=species:S:1:pos:R:3:initial_magmoms:R:1 pbc="T T T"
Si      -1.36445041      -1.34747297       1.35031554       0.00000000
Si      -1.36230013       1.36572103      -1.33622392       0.00000000
Si       1.35985663       1.34376211       1.36335685       0.00000000
Si       1.36254448      -1.36265037      -1.34573503       0.00000000
Si       0.01005093      -2.69382845       2.68709378       0.00000000
Si       2.71226873       0.02513547      -2.68102534       0.00000000
Si       0.00842193       2.72378576      -2.67446092       0.00000000
Si      -2.74732482       0.01482390      -2.66118621       0.00000000
Si      -0.00068418       2.69535971       2.71629815       0.00000000
Si      -2.71443530      -2.71733492      -0.00093361       0.00000000
