10
Lattice="16.290000149 0.0 0.0 0.0 16.290000149 0.0 0.0 0.0 29.1751946751" Properties=species:S:1:pos:R:3:initial_magmoms:R:1 pbc="T T T"
Si      -1.25567719       1.42361569       1.33978883       0.00000000
Si       1.63239322      -1.18493461       1.21462929       0.00000000
Si       0.67382445       1.76436992      -1.50622778       0.00000000
Si      -1.34222597      -1.97291450      -0.48707988       0.00000000
Si       0.29666860      -2.59085285       2.56798897       0.00000000
Si       0.17630830       0.85349827      -3.60316572       0.00000000
Si      -2.58463170       0.09984141       2.69616143       0.00000000
Si      -0.40574318      -2.79138112      -2.48038753       0.00000000
Si       0.24630480       2.81298981       2.49982112       0.00000000
Si      -2.41200657       2.91705033      -0.03022550       0.00000000
