10
Lattice="16.290000149 0.0 0.0 0.0 16.290000149 0.0 0.0 0.0 29.1751946751" Properties=species:S:1:pos:R:3:initial_magmoms:R:1 pbc="T T T"
Si      -1.31644378      -1.34206795      -1.39587844       0.00000000
Si       1.35321031       1.31549896      -1.39914606       0.00000000
Si      -1.37854126       1.36008469       1.33409413       0.00000000
Si       1.35278677      -1.36653553       1.35629645       0.00000000
Si       2.70076799       2.68438025      -0.03801528       0.00000000
Si      -2.69188832      -2.70226667      -0.03433920       0.00000000
Si      -0.01695789       2.71388144       2.68712296       0.00000000
Si       0.10177992      -2.72344367      -2.68222152       0.00000000
Si       2.70101234      -0.00998577       2.71758186       0.00000000
Si      -2.70790301       0.00201996       2.71793196       0.00000000
