10
Lattice="16.290000149 0.0 0.0 0.0 16.290000149 0.0 0.0 0.0 29.1751946751" Properties=species:S:1:pos:R:3:initial_magmoms:R:1 pbc="T T T"
Si       1.43624044      -0.29765088      -0.43815307       0.00000000
Si      -2.03209607       0.07656300       1.04528887       0.00000000
Si      -1.23642730       1.95597290      -0.21496283       0.00000000
Si       0.64042507       2.65408085       1.06725780       0.00000000
Si       1.07232184      -0.06483420      -2.79308726       0.00000000
Si      -0.60474997       1.61569108      -2.54089688       0.00000000
Si      -0.92540233      -1.24520761       2.66325765       0.00000000
Si       2.64495845       1.28378233       0.99143147       0.00000000
Si       1.90943237      -2.43787997       0.41239138       0.00000000
H        1.61041312       2.39985911      -1.41890642       0.00000000
