10
Lattice="16.290000149 0.0 0.0 0.0 16.290000149 0.0 0.0 0.0 29.1751946751" Properties=species:S:1:pos:R:3:initial_magmoms:R:1 pbc="T T T"
Si      -1.35980776      -1.36280512       1.34308009       0.00000000
Si      -1.36026388       1.35316959      -1.35241615       0.00000000
Si       1.33162606       1.35498429       1.38354608       0.00000000
Si       1.35058762      -1.36133902      -1.36003087       0.00000000
Si       2.68317479       2.70630659       0.01012379       0.00000000
Si      -2.71275743       0.02199150       2.68041266       0.00000000
Si       0.02736720      -2.70589934       2.68974872       0.00000000
Si      -2.70661610      -0.03507237      -2.69187851       0.00000000
Si       2.66383856      -0.01117494       2.75568466       0.00000000
Si      -0.01053963       2.74095543      -2.68770646       0.00000000
