10
Lattice="16.290000149 0.0 0.0 0.0 16.290000149 0.0 0.0 0.0 29.1751946751" Properties=species:S:1:pos:R:3:initial_magmoms:R:1 pbc="T T T"
Si       1.36158337       1.35379675       1.35302883       0.00000000
Si      -1.32936175      -1.35806473       1.38383783       0.00000000
Si       1.37854126      -1.36008469      -1.33409413       0.00000000
Si      -1.36888781       1.34786719      -1.36536994       0.00000000
Si      -2.66328487      -2.73544941       0.03854043       0.00000000
Si      -0.00684180       2.70751205       2.70489065       0.00000000
Si       2.71686251       2.69788466      -0.02255243       0.00000000
Si      -0.02285487       2.67727781      -2.74614729       0.00000000
Si      -2.71743266       0.00314397       2.70669951       0.00000000
Si       2.70971120      -0.00651600       2.71930319       0.00000000
