10
Lattice="16.290000149 0.0 0.0 0.0 16.290000149 0.0 0.0 0.0 29.1751946751" Properties=species:S:1:pos:R:3:initial_magmoms:R:1 pbc="T T T"
Si       1.28987479       1.43827718      -1.28239568       0.00000000
Si      -1.03133620       1.62327245       1.31565540       0.00000000
Si       1.52547706      -0.99487918       1.50777406       0.00000000
Si      -1.57631815      -1.30952053      -1.20563574       0.00000000
Si       2.48277521       2.58568729       0.40629376       0.00000000
Si      -1.55158993       0.37261746       3.25105029       0.00000000
Si       2.59449203       0.02676447      -2.61888217       0.00000000
H        0.67147381      -2.26100315      -2.83932995       0.00000000
Si       3.04878756       0.85504582       1.93737880       0.00000000
Si       2.52475454      -2.75929797       0.24049113       0.00000000
