10
Lattice="16.290000149 0.0 0.0 0.0 16.290000149 0.0 0.0 0.0 29.1751946751" Properties=species:S:1:pos:R:3:initial_magmoms:R:1 pbc="T T T"
Si       1.34822557       1.36176256       1.35034471       0.00000000
Si      -1.34288245       1.35799957      -1.36350272       0.00000000
Si       1.35883036      -1.35591445      -1.35349563       0.00000000
Si      -1.36782896      -1.36518346       1.34378029       0.00000000
Si      -0.03254742      -2.69926931      -2.68426379       0.00000000
Si       2.69161301      -0.02135619       2.69362902       0.00000000
Si      -2.67680557      -0.01938510      -2.70880012       0.00000000
Si      -0.04018743       2.71265969       2.68385533       0.00000000
Si       2.69619050       2.70954830      -0.02803736       0.00000000
Si       2.69009804      -2.72569169       0.01785522       0.00000000
