10
Lattice="16.290000149 0.0 0.0 0.0 16.290000149 0.0 0.0 0.0 29.1751946751" Properties=species:S:1:pos:R:3:initial_magmoms:R:1 pbc="T T T"
Si      -0.64329211       0.84364282      -1.07854860       0.00000000
Si       2.14817861       0.25164792       1.30550244       0.00000000
Si       2.25631163      -1.48136374      -0.49813727       0.00000000
Si       0.38988486       1.21645576       2.56980950       0.00000000
Si      -2.07280478       2.07049160       0.20971130       0.00000000
Si       0.42039603      -2.66624134      -1.50153057       0.00000000
Si      -2.08222040      -0.48698955      -2.28940670       0.00000000
Si      -0.68768236      -2.31328428       2.13661621       0.00000000
Si      -1.37694484      -0.26448444       2.90255259       0.00000000
Si       0.85916719       2.20341800      -2.24085918       0.00000000
