10
Lattice="16.290000149 0.0 0.0 0.0 16.290000149 0.0 0.0 0.0 29.1751946751" Properties=species:S:1:pos:R:3:initial_magmoms:R:1 pbc="T T T"
Si       1.30295566      -1.42107445      -1.30486700       0.00000000
Si       1.42001560       1.29077074       1.34197085       0.00000000
Si      -1.29582064      -1.49146354       1.27061999       0.00000000
Si      -1.27711972       1.48972051      -1.34218207       0.00000000
Si       2.58102020       0.04794147      -2.63443897       0.00000000
Si      -2.67926519      -0.12079035       2.62307407       0.00000000
Si       0.03741813       2.64512135       2.66692147       0.00000000
Si      -2.63389754       0.13921434      -2.68249052       0.00000000
Si      -2.72129339       2.68201820       0.01698755       0.00000000
Si      -0.06704964      -2.46068597      -2.93657729       0.00000000
