10
Lattice="16.290000149 0.0 0.0 0.0 16.290000149 0.0 0.0 0.0 29.1751946751" Properties=species:S:1:pos:R:3:initial_magmoms:R:1 pbc="T T T"
Si      -1.16267270       0.16495254      -2.02084903       0.00000000
Si       0.22851449       1.85446991       1.43469020       0.00000000
Si       2.30998067      -0.17555733      -0.59823737       0.00000000
Si      -1.16534426      -2.05495094       0.59622428       0.00000000
H       -2.70922902       0.59803849       0.01511275       0.00000000
H       -2.19988959      -0.93887416      -1.81411360       0.00000000
Si      -3.16987765      -0.68465242       0.67205061       0.00000000
Si       1.66403329       0.66704293       2.88081707       0.00000000
Si       1.88665243      -1.98852032      -2.08331313       0.00000000
Si       0.32355524      -0.91129519      -3.44763275       0.00000000
