10
Lattice="16.290000149 0.0 0.0 0.0 16.290000149 0.0 0.0 0.0 29.1751946751" Properties=species:S:1:pos:R:3:initial_magmoms:R:1 pbc="T T T"
Si      -0.97764436       1.86523760      -0.88593396       0.00000000
Si      -1.76682971      -1.48094020       0.33274310       0.00000000
Si       0.38478609       0.63851914       2.22773034       0.00000000
Si       1.75829375      -0.96480784      -1.26430706       0.00000000
H       -0.38988486      -1.21645576      -2.56980950       0.00000000
Si       1.88429690      -1.21559239       2.56989702       0.00000000
Si       2.49782717      -2.29342025       0.52118568       0.00000000
Si      -2.46268964       0.85403584      -2.36009820       0.00000000
Si      -1.07756722      -3.52974004      -0.43319329       0.00000000
Si      -3.58546161      -0.58813417      -0.81197484       0.00000000
