10
Lattice="16.290000149 0.0 0.0 0.0 16.290000149 0.0 0.0 0.0 29.1751946751" Properties=species:S:1:pos:R:3:initial_magmoms:R:1 pbc="T T T"
Si      -0.27596563       0.82060876       2.15441308       0.00000000
Si       1.65162683      -1.65446129       0.09522784       0.00000000
Si      -1.76940353      -1.00662427      -1.15542523       0.00000000
Si       0.92129725       1.73102429      -1.27947816       0.00000000
Si      -0.42832926      -2.30876543      -2.57870793       0.00000000
Si      -2.54615960       1.31181742       2.03850003       0.00000000
Si       2.44872911       0.46755558      -2.49456667       0.00000000
Si       3.48021192      -0.35922708      -0.54108316       0.00000000
Si       1.01286334       2.80680449       2.26933417       0.00000000
Si       2.11504475      -2.07717050       2.30767037       0.00000000
