10
Lattice="16.290000149 0.0 0.0 0.0 16.290000149 0.0 0.0 0.0 29.1751946751" Properties=species:S:1:pos:R:3:initial_magmoms:R:1 pbc="T T T"
H       -0.65047600       0.41943492      -0.07918148       0.00000000
Si       1.99192493       0.63016237       1.05687143       0.00000000
H       -1.78561208      -1.21909474       1.07320954       0.00000000
Si       0.76199734      -0.55776961      -2.51563116       0.00000000
Si       0.21056454       2.16811757       1.69574984       0.00000000
Si      -2.50492961      -1.28959786      -0.25312399       0.00000000
Si      -0.89661790      -2.08130816      -1.77612750       0.00000000
Si       1.19625616      -1.24924753       2.31712314       0.00000000
Si       2.62360226       0.28988055      -1.26906262       0.00000000
Si      -0.72391132       1.24276411      -2.63472431       0.00000000
