10
Lattice="16.290000149 0.0 0.0 0.0 16.290000149 0.0 0.0 0.0 29.1751946751" Properties=species:S:1:pos:R:3:initial_magmoms:R:1 pbc="T T T"
Si      -1.40432019       1.31882212       1.31314634       0.00000000
Si       1.36993200      -1.23862645       1.44516409       0.00000000
Si       1.33130841       1.39786120      -1.34202978       0.00000000
Si      -1.39205382      -1.37542987      -1.31145418       0.00000000
Si       2.56856650      -2.64099998      -0.02984622       0.00000000
Si      -0.11626988       2.72841212       2.63271122       0.00000000
Si       2.63015899       0.04015485      -2.75971084       0.00000000
Si       0.00291265      -2.66654270       2.74488984       0.00000000
Si      -2.73177601      -0.00979029      -2.68735636       0.00000000
Si      -2.72711707       2.69237864      -0.02167717       0.00000000
