10
Lattice="16.290000149 0.0 0.0 0.0 16.290000149 0.0 0.0 0.0 29.1751946751" Properties=species:S:1:pos:R:3:initial_magmoms:R:1 pbc="T T T"
Si       1.32054886      -1.27031050       1.46066196       0.00000000
Si      -0.86942989      -1.92422369      -1.03143649       0.00000000
Si      -1.43153263       1.37215558       1.27942273       0.00000000
Si       1.21117780       1.42182379      -1.45075990       0.00000000
Si       2.57737124      -2.67305870       0.09659907       0.00000000
Si       2.61301376       2.74662435      -0.09187269       0.00000000
Si      -0.05523939       2.77513185       2.58764138       0.00000000
Si       2.74999638       0.14415021      -2.62978786       0.00000000
Si      -0.09110997      -2.67551849       2.71650821       0.00000000
Si      -1.54662148      -1.49882662      -3.16462753       0.00000000
