10
Lattice="16.290000149 0.0 0.0 0.0 16.290000149 0.0 0.0 0.0 29.1751946751" Properties=species:S:1:pos:R:3:initial_magmoms:R:1 pbc="T T T"
Si      -1.34032492      -1.34838847       1.37263456       0.00000000
Si       1.32361138      -1.37095012      -1.37365569       0.00000000
Si      -1.35964486       1.32541957      -1.39151091       0.00000000
Si       1.34364808       1.32696712       1.40779067       0.00000000
Si       2.69936705       2.67398723       0.01406244       0.00000000
Si       2.62809830      -2.75136474       0.00110866       0.00000000
Si      -2.73305477       2.68429880      -0.07031222       0.00000000
Si      -2.73281043       0.00451233       2.68656863       0.00000000
Si       2.67750587      -0.02293632      -2.74734056       0.00000000
Si      -0.00576666       2.70024671      -2.73444512       0.00000000
