10
Lattice="16.290000149 0.0 0.0 0.0 16.290000149 0.0 0.0 0.0 29.1751946751" Properties=species:S:1:pos:R:3:initial_magmoms:R:1 pbc="T T T"
Si      -1.37099899       1.36008469      -1.31375902       0.00000000
Si      -1.38776140      -1.35946567       1.30407285       0.00000000
Si       1.32388831      -1.35120664      -1.38512154       0.00000000
Si       1.35575155       1.37151539       1.33847041       0.00000000
Si      -0.00571779      -2.70529661       2.64047182       0.00000000
Si      -0.02490741       2.69048900      -2.66046850       0.00000000
Si       2.67434561       0.04355584      -2.69642984       0.00000000
Si      -2.70567128       0.01089801       2.69342480       0.00000000
Si       2.73784403       0.01231524       2.66109868       0.00000000
Si      -0.00408879       2.72873793       2.67851627       0.00000000
