10
Lattice="16.290000149 0.0 0.0 0.0 16.290000149 0.0 0.0 0.0 29.1751946751" Properties=species:S:1:pos:R:3:initial_magmoms:R:1 pbc="T T T"
Si       1.46918312      -1.29280373       1.27195096       0.00000000
Si      -1.40022325      -1.41676086      -1.25756759       0.00000000
Si      -1.23207787       1.42998183       1.41581385       0.00000000
Si       1.38287440       1.33765010      -1.38092031       0.00000000
Si       0.15780123      -2.63085457       2.63714585       0.00000000
Si      -2.58554882       2.74062637      -0.00939441       0.00000000
Si      -2.66141135      -0.02476243      -2.68811491       0.00000000
Si       0.02969667      -2.69884903      -2.66958866       0.00000000
Si       2.70124529       0.06796514       2.71650238       0.00000000
Si       2.76171540       2.69933122      -0.04668031       0.00000000
