10
Lattice="16.290000149 0.0 0.0 0.0 16.290000149 0.0 0.0 0.0 29.1751946751" Properties=species:S:1:pos:R:3:initial_magmoms:R:1 pbc="T T T"
Si      -1.35984034       1.35722254       1.34004587       0.00000000
Si       1.34920297       1.37295868      -1.33762433       0.00000000
Si       1.38209248      -1.35920015       1.32262828       0.00000000
Si      -1.35575155      -1.37151539      -1.33847041       0.00000000
Si       2.67991679      -0.04661058      -2.62448381       0.00000000
Si       0.00504990      -2.71487025       2.65462179       0.00000000
Si      -2.72675055      -0.01143069      -2.65222942       0.00000000
Si       0.01316232       2.70491054       2.68321348       0.00000000
Si       2.73207737       0.01066181       2.67387742       0.00000000
Si      -2.70469388       0.00209164       2.70541580       0.00000000
