10
Lattice="16.290000149 0.0 0.0 0.0 16.290000149 0.0 0.0 0.0 29.1751946751" Properties=species:S:1:pos:R:3:initial_magmoms:R:1 pbc="T T T"
Si       1.34136748       1.33281523      -1.37324724       0.00000000
Si      -1.43873281       1.37054287       1.23247692       0.00000000
Si       1.34161183      -1.34697124       1.38363361       0.00000000
Si      -1.38310246      -1.35022924      -1.34045432       0.00000000
Si      -0.16084746      -2.70674642       2.54594419       0.00000000
Si       2.70093089       2.64101627       0.01636728       0.00000000
Si      -0.01290168      -2.73735534      -2.65144169       0.00000000
Si      -2.81355996       0.05160672       2.59069894       0.00000000
Si       2.71477739      -0.02606400      -2.69444593       0.00000000
Si      -0.01532889       2.66742236      -2.75075405       0.00000000
