10
Lattice="16.290000149 0.0 0.0 0.0 16.290000149 0.0 0.0 0.0 29.1751946751" Properties=species:S:1:pos:R:3:initial_magmoms:R:1 pbc="T T T"
Si      -1.42983847       1.44370126       1.12120273       0.00000000
Si      -1.35956341      -1.30820104      -1.38961452       0.00000000
Si       1.34956135       1.39080763      -1.34547245       0.00000000
Si       1.33105591      -1.31546638       1.44303430       0.00000000
H       -0.58565809       2.37829115       1.93081438       0.00000000
Si      -2.70093089      -2.64101627      -0.01636728       0.00000000
Si       0.01384650      -2.66708027      -2.71081321       0.00000000
Si       2.71713944      -2.66553272       0.08848837       0.00000000
Si       2.73313622       0.04712697      -2.68114204       0.00000000
Si      -2.72461655       2.73758340      -0.30549346       0.00000000
