10
Lattice="16.290000149 0.0 0.0 0.0 16.290000149 0.0 0.0 0.0 29.1751946751" Properties=species:S:1:pos:R:3:initial_magmoms:R:1 pbc="T T T"
Si       1.35984034      -1.35722254      -1.34004587       0.00000000
Si       1.37300266       1.34768800       1.34316761       0.00000000
Si      -1.34485354      -1.35513090       1.36536994       0.00000000
Si      -1.33126768       1.36977724      -1.37135085       0.00000000
Si       0.00151497       2.70433550       2.67577380       0.00000000
Si       2.70904331       0.01573614      -2.67767019       0.00000000
Si       0.04479750      -2.70365132       2.69844293       0.00000000
Si       0.00408879      -2.72873792      -2.67851627       0.00000000
Si      -2.69009804       2.72569169      -0.01785522       0.00000000
Si      -2.70158249      -2.71783991       0.01490852       0.00000000
