10
Lattice="16.290000149 0.0 0.0 0.0 16.290000149 0.0 0.0 0.0 29.1751946751" Properties=species:S:1:pos:R:3:initial_magmoms:R:1 pbc="T T T"
Si       0.46341792      -0.42270921       2.21244254       0.00000000
Si       1.82858510       1.29523420      -0.63631100       0.00000000
Si      -1.65162683       1.65446129      -0.09522784       0.00000000
Si      -0.66363832      -1.87807412      -1.29604967       0.00000000
H        1.81962560       0.15369615       2.48779803       0.00000000
Si       0.79710229       2.12201687      -2.58979451       0.00000000
Si      -2.07995609      -0.65430415      -2.67393577       0.00000000
Si      -3.42103035       0.64783702      -1.25065307       0.00000000
Si      -0.73032958       3.38548557      -1.37470600       0.00000000
Si       3.65083338      -0.16151535      -0.80377661       0.00000000
