10
Lattice="16.290000149 0.0 0.0 0.0 16.290000149 0.0 0.0 0.0 29.1751946751" Properties=species:S:1:pos:R:3:initial_magmoms:R:1 pbc="T T T"
Si      -0.08164548       0.69457303       2.22862894       0.00000000
Si       0.73736686      -2.18742448      -0.39873739       0.00000000
Si       1.93334609       1.04195728      -0.90478114       0.00000000
Si      -2.20345058       0.38222856      -0.80622733       0.00000000
H        2.44521047      -0.25811505       1.55066160       0.00000000
Si       2.62941779      -1.62457076       0.89573683       0.00000000
Si      -2.15699150       2.67610493      -0.14129547       0.00000000
Si       1.47242053      -1.83666657      -2.66159466       0.00000000
Si       1.01222803       2.07692615      -2.74188480       0.00000000
Si       0.24407307       0.02880072      -3.61801589       0.00000000
