10
Lattice="16.290000149 0.0 0.0 0.0 16.290000149 0.0 0.0 0.0 29.1751946751" Properties=species:S:1:pos:R:3:initial_magmoms:R:1 pbc="T T T"
Si       1.32660874       1.32875430       1.34348270       0.00000000
Si      -1.41169141       1.34774355      -1.26092566       0.00000000
Si       1.23336478      -1.20458833      -1.59260094       0.00000000
Si      -1.45764550      -1.44041867       1.21686236       0.00000000
Si      -2.45094455      -0.51341992      -2.20492993       0.00000000
Si      -0.70817518      -2.05693001      -2.65450976       0.00000000
Si       2.62575320       2.61815342      -0.12871512       0.00000000
Si       2.64383184      -0.10633281       2.61823449       0.00000000
Si       2.53364888      -2.73645108      -0.27465820       0.00000000
Si      -0.11598480       2.66158256       2.62485725       0.00000000
