10
Lattice="16.290000149 0.0 0.0 0.0 16.290000149 0.0 0.0 0.0 29.1751946751" Properties=species:S:1:pos:R:3:initial_magmoms:R:1 pbc="T T T"
Si      -1.37148769       1.35664750       1.33260619       0.00000000
Si      -1.37300266      -1.34768800      -1.34316761       0.00000000
Si       1.34975683       1.36449928      -1.35708418       0.00000000
Si       1.36881613      -1.34464177       1.36388200       0.00000000
Si      -0.00415395       2.71480997       2.66171136       0.00000000
Si      -0.01316232      -2.70491054      -2.68321348       0.00000000
Si       2.71891505      -2.69424874      -0.00933606       0.00000000
Si       2.72106533       0.01894527      -2.69587551       0.00000000
Si      -2.70427034       0.02208924      -2.71451846       0.00000000
Si      -2.71785620      -2.70281891       0.02220232       0.00000000
