10
Lattice="16.290000149 0.0 0.0 0.0 16.290000149 0.0 0.0 0.0 29.1751946751" Properties=species:S:1:pos:R:3:initial_magmoms:R:1 pbc="T T T"
Si       0.08066808       1.06673437       1.06757872       0.00000000
H        1.13303141       1.80058259      -1.87161791       0.00000000
Si      -2.47826288      -1.40954113      -0.98565478       0.00000000
Si      -0.48268899      -2.29461757      -1.95972700       0.00000000
Si      -1.51958008       0.38126745       2.63052308       0.00000000
H       -1.25366212      -2.19108647       1.83374851       0.00000000
Si       2.25862155       1.25310826       1.77140112       0.00000000
Si      -0.39252384       3.20696346       0.21703427       0.00000000
Si       2.27194677       0.83585620      -2.16415759       0.00000000
Si      -3.09179316      -0.33171327       1.06305657       0.00000000
