10
Lattice="16.290000149 0.0 0.0 0.0 16.290000149 0.0 0.0 0.0 29.1751946751" Properties=species:S:1:pos:R:3:initial_magmoms:R:1 pbc="T T T"
Si      -1.37340991       1.35887923       1.32119869       0.00000000
Si      -1.37399635      -1.36412461      -1.33167259       0.00000000
Si       1.35387820       1.37482714      -1.34293421       0.00000000
Si       1.35964486      -1.32541957       1.39151091       0.00000000
Si      -0.01384650       2.66708027       2.71081321       0.00000000
Si       2.68325624      -2.69636969       0.01785522       0.00000000
Si      -0.01345554      -2.71572221      -2.68461389       0.00000000
Si      -2.71477739       0.02606400       2.69444593       0.00000000
Si       2.70109379       0.02707398      -2.70941280       0.00000000
Si      -2.73010628       2.69348636      -0.05630813       0.00000000
