10
Lattice="16.290000149 0.0 0.0 0.0 16.290000149 0.0 0.0 0.0 29.1751946751" Properties=species:S:1:pos:R:3:initial_magmoms:R:1 pbc="T T T"
Si       0.24746139       1.30119634      -1.04966515       0.00000000
Si      -1.62468316       0.71547310       0.44139152       0.00000000
H        1.54846225       1.66842182       0.01312884       0.00000000
Si       1.48204792      -0.57694294      -1.73758707       0.00000000
Si       1.49701843      -1.99879931       0.23039651       0.00000000
Si      -0.94749157       0.29007603       2.57458256       0.00000000
Si       0.76548340      -1.36985869       2.41149001       0.00000000
Si      -2.66512547      -1.05507073      -0.64631809       0.00000000
Si      -1.31976694      -2.59590926      -1.80066384       0.00000000
Si      -0.09016515      -1.28992366      -3.30505358       0.00000000
