10
Lattice="16.290000149 0.0 0.0 0.0 16.290000149 0.0 0.0 0.0 29.1751946751" Properties=species:S:1:pos:R:3:initial_magmoms:R:1 pbc="T T T"
Si      -1.23336478       1.20458833       1.59260094       0.00000000
Si      -1.94153996      -0.85234168      -1.06190882       0.00000000
Si       1.30028410      -1.53186274       1.31794274       0.00000000
Si       1.47475603       1.30874008      -1.37428879       0.00000000
H       -0.85887397      -2.56000610      -1.85101147       0.00000000
Si      -2.64505619       2.55233188       0.33167528       0.00000000
Si       2.64620790      -0.28520532      -2.65948529       0.00000000
Si       2.82431787       2.51752830       0.10940406       0.00000000
Si      -3.68430933       0.69116842      -0.61232899       0.00000000
Si       2.69163908      -0.24635367       2.75365115       0.00000000
