10
Lattice="16.290000149 0.0 0.0 0.0 16.290000149 0.0 0.0 0.0 29.1751946751" Properties=species:S:1:pos:R:3:initial_magmoms:R:1 pbc="T T T"
Si       1.36682875      -1.35723394       1.32840496       0.00000000
Si       1.36852291       1.34387614      -1.34287586       0.00000000
Si      -1.34030863      -1.36282141      -1.36513653       0.00000000
Si      -1.31818681       1.36278883       1.39098576       0.00000000
Si      -0.01352070       2.68970708      -2.67927483       0.00000000
Si      -0.00894321      -2.68754051       2.68397203       0.00000000
Si       2.71555931       0.00443088       2.67659071       0.00000000
Si      -2.69878713      -2.71458191      -0.00215896       0.00000000
Si      -2.69120739      -0.00392589      -2.72531328       0.00000000
Si       2.71858925      -0.02101410      -2.69873468       0.00000000
