10
Lattice="16.290000149 0.0 0.0 0.0 16.290000149 0.0 0.0 0.0 29.1751946751" Properties=species:S:1:pos:R:3:initial_magmoms:R:1 pbc="T T T"
Si       1.34429317       1.46435698      -1.23318646       0.00000000
Si       1.38632137      -1.33845157       1.37290005       0.00000000
Si      -1.35893462       1.46052883       1.28721834       0.00000000
Si      -1.22077880      -1.49107258      -1.39891557       0.00000000
Si      -2.68055862      -2.66970296       0.01838037       0.00000000
Si      -2.66123868       0.10596645       2.72152634       0.00000000
Si      -0.01301082       2.70718625      -2.69020969       0.00000000
Si       2.78846684       0.27205929      -2.59235609       0.00000000
Si       0.04028843      -2.66786219       2.75367741       0.00000000
Si       0.03242036       2.74603791       2.72292675       0.00000000
