10
Lattice="16.290000149 0.0 0.0 0.0 16.290000149 0.0 0.0 0.0 29.1751946751" Properties=species:S:1:pos:R:3:initial_magmoms:R:1 pbc="T T T"
Si      -1.38898315      -1.35961228       1.31329221       0.00000000
Si      -1.36950031       1.34177473      -1.35355398       0.00000000
Si       1.35241210      -1.36976095      -1.35078234       0.00000000
Si       1.37686339       1.36594909       1.33654484       0.00000000
Si       2.77202046      -0.08462655       2.53007288       0.00000000
Si       0.00754227       2.69744483      -2.68554749       0.00000000
Si      -0.06929766      -2.80059312       2.58932770       0.00000000
Si      -2.68959305       2.71021619       0.03031303       0.00000000
Si      -2.67983534       0.00822645       2.72563421       0.00000000
Si       2.72745101      -0.02669931      -2.69246202       0.00000000
