10
Lattice="16.290000149 0.0 0.0 0.0 16.290000149 0.0 0.0 0.0 29.1751946751" Properties=species:S:1:pos:R:3:initial_magmoms:R:1 pbc="T T T"
Si      -1.31138189      -1.33805084       1.36519488       0.00000000
Si      -1.46918312       1.29280373      -1.27195096       0.00000000
Si       1.23206217       1.36076887       1.44455141       0.00000000
Si       1.37900611      -1.39573373      -1.29777101       0.00000000
Si       2.61037048      -0.09056263       2.60347767       0.00000000
Si      -0.08630872       2.63045384      -2.65287128       0.00000000
Si       2.64084907       2.65664816       0.05683328       0.00000000
Si      -2.61599913       0.07346187       2.70168138       0.00000000
Si       2.71579936      -0.04519498      -2.66777980       0.00000000
Si      -2.58757308      -2.80035528       0.06756975       0.00000000
