10
Lattice="16.290000149 0.0 0.0 0.0 16.290000149 0.0 0.0 0.0 29.1751946751" Properties=species:S:1:pos:R:3:initial_magmoms:R:1 pbc="T T T"
Si       1.35524656      -1.35755974       1.30413120       0.00000000
Si       1.37155285       1.25366212      -1.43256041       0.00000000
Si      -1.31077486      -1.42962670      -1.32318260       0.00000000
Si      -1.19863450       1.40237353       1.47501032       0.00000000
Si      -2.56856650       2.64099998       0.02984622       0.00000000
Si       2.72189612       2.59664231      -0.12028933       0.00000000
Si      -2.64006820      -0.07056828      -2.68869842       0.00000000
Si       2.74203057      -0.00532683       2.59796356       0.00000000
Si      -2.56565385      -0.02554272       2.77473606       0.00000000
Si       0.00801468      -2.66611916       2.69517531       0.00000000
