10
Lattice="16.28999089631971 0.0 0.0 0.0 16.28999089631971 0.0 0.0 0.0 34.2284985734139" Properties=species:S:1:pos:R:3:initial_magmoms:R:1 pbc="T T T"
Si      -1.73060073      -1.34286615       1.09209509       0.00000000
Si      -0.58319829       1.15812126      -2.14445086       0.00000000
Si      -0.53398620      -1.30861968      -2.09567522       0.00000000
Si       1.32095610       2.10461913      -0.71469145       0.00000000
Si      -1.72599066       2.25331425       0.44127405       0.00000000
Si       1.74728169      -2.00685290      -1.10712141       0.00000000
Si       2.59812468       1.24701579       1.15100236       0.00000000
Si       1.82775429      -2.25630251       1.24037302       0.00000000
Si      -3.20658387       0.35644149       0.39650315       0.00000000
Si       1.83488931      -0.39195369       2.66438205       0.00000000
