10
Lattice="16.28999089631971 0.0 0.0 0.0 16.28999089631971 0.0 0.0 0.0 34.2284985734139" Properties=species:S:1:pos:R:3:initial_magmoms:R:1 pbc="T T T"
Si       1.24874253       1.11689453       1.61996729       0.00000000
Si      -0.42508755       1.66386386      -1.58330854       0.00000000
Si       1.52285436      -1.30957428      -1.20179749       0.00000000
Si      -1.27197207      -1.70737512       1.01593663       0.00000000
Si      -0.09658341      -2.88090672      -1.91080700       0.00000000
Si       1.76686227       2.60277059      -1.77673390       0.00000000
Si       2.65435776      -0.62075814       2.37306313       0.00000000
Si      -1.66889421       3.23765705      -0.36836731       0.00000000
Si      -0.18052578      -3.66131175       0.26321730       0.00000000
Si       3.03367041      -2.13360297       0.45007078       0.00000000
