10
Lattice="16.28999089631971 0.0 0.0 0.0 16.28999089631971 0.0 0.0 0.0 34.2284985734139" Properties=species:S:1:pos:R:3:initial_magmoms:R:1 pbc="T T T"
Si      -1.17014328       1.50646662      -1.31140062       0.00000000
Si       1.33934751       1.37378457       1.36029264       0.00000000
Si      -1.37873673      -1.33996653       1.35611676       0.00000000
Si       1.26928422      -1.47641157      -1.44990632       0.00000000
Si      -2.57753412       0.14913495      -2.56331893       0.00000000
Si       2.68568343      -2.70746316      -0.01088809       0.00000000
Si       2.69456148       0.01842399       2.71714531       0.00000000
Si       2.67520896       2.73779514      -0.02048577       0.00000000
Si      -0.01842399      -2.69750997       2.71659765       0.00000000
Si      -2.74361067      -2.69667918      -0.03289361       0.00000000
