10
Lattice="16.28999089631971 0.0 0.0 0.0 16.28999089631971 0.0 0.0 0.0 34.2284985734139" Properties=species:S:1:pos:R:3:initial_magmoms:R:1 pbc="T T T"
Si       1.47598314      -1.69930764       0.69559194       0.00000000
Si       0.30092028       0.07464078      -2.34968505       0.00000000
Si      -2.04447223       0.48567006       1.13628410       0.00000000
Si       1.48059321       1.89687276       0.04477090       0.00000000
Si       3.20658387      -0.35644149      -0.39650315       0.00000000
Si      -0.56396143       3.25793484      -0.05151392       0.00000000
Si      -2.03536612      -1.75699379      -2.04662576       0.00000000
Si       1.46718654      -1.42900278       3.10113793       0.00000000
Si       2.62338558       0.80167977      -2.54095401       0.00000000
Si      -2.42595145      -1.38847000       2.54461646       0.00000000
