10
Lattice="16.28999089631971 0.0 0.0 0.0 16.28999089631971 0.0 0.0 0.0 34.2284985734139" Properties=species:S:1:pos:R:3:initial_magmoms:R:1 pbc="T T T"
Si       1.34721558       0.87972516      -1.72077027       0.00000000
Si      -1.02120381       1.42188894       1.61334548       0.00000000
Si      -1.98394281      -0.56031084      -1.25139461       0.00000000
Si       1.45632600      -1.54463409       1.14775066       0.00000000
Si      -0.65658474      -0.01747917      -3.10883935       0.00000000
Si       2.19719520      -2.65508104      -0.95192931       0.00000000
Si      -1.95393663       3.07103967       0.26742741       0.00000000
Si       2.98183563       2.10631329      -0.03843863       0.00000000
Si      -2.57217471       0.00430056       2.67891346       0.00000000
Si      -3.19103181       1.60759494      -1.28182376       0.00000000
