10
Lattice="16.28999089631971 0.0 0.0 0.0 16.28999089631971 0.0 0.0 0.0 34.2284985734139" Properties=species:S:1:pos:R:3:initial_magmoms:R:1 pbc="T T T"
Si      -1.41046965       1.28857158      -1.27698385       0.00000000
Si       1.32346476       1.38192957       1.36792560       0.00000000
Si      -1.39828473      -1.33534017       1.36573497       0.00000000
Si       1.37306781      -1.34169327      -1.66389274       0.00000000
Si      -2.43532242      -0.18979479      -2.87385856       0.00000000
Si       2.65608450      -2.68413588      -0.01309241       0.00000000
Si       2.67208128       2.71031391      -0.00297788       0.00000000
Si       2.67439446       0.02586852       2.72395678       0.00000000
Si      -0.03973131      -2.69055414       2.72457289       0.00000000
Si      -2.74304052      -2.68615584       0.00476461       0.00000000
