10
Lattice="16.28999089631971 0.0 0.0 0.0 16.28999089631971 0.0 0.0 0.0 34.2284985734139" Properties=species:S:1:pos:R:3:initial_magmoms:R:1 pbc="T T T"
Si       1.68787206      -1.76090013      -0.31948898       0.00000000
Si       0.80389521       1.76736726      -1.51259243       0.00000000
Si      -1.83659976      -0.91382013      -1.36609437       0.00000000
Si      -0.43499187      -1.00558170       2.91907645       0.00000000
Si       1.19819466       2.64236832       2.05785271       0.00000000
Si      -0.42497352      -2.12779980      -2.91363411       0.00000000
Si       2.30863509       0.60331644      -2.91828919       0.00000000
Si       1.71650988       3.48360021      -0.26585290       0.00000000
Si       3.54485061      -0.78626943      -1.48377201       0.00000000
Si      -1.40418171       3.22851510       1.77444059       0.00000000
