10
Lattice="16.28999089631971 0.0 0.0 0.0 16.28999089631971 0.0 0.0 0.0 34.2284985734139" Properties=species:S:1:pos:R:3:initial_magmoms:R:1 pbc="T T T"
Si       0.31618890       1.76151915       1.53757924       0.00000000
Si       0.20619882      -1.77041349       1.61719478       0.00000000
Si      -2.25919494       0.44424459      -0.74080781       0.00000000
Si       1.12409145      -0.37219392      -2.11617811       0.00000000
Si      -1.78232148       1.31435865       2.68478224       0.00000000
Si       0.28580805       3.84287616       0.38904133       0.00000000
Si       1.55331666      -3.49511724       0.66536816       0.00000000
Si      -3.56343750      -1.42384374      -0.82271665       0.00000000
Si       0.21352932       1.01276559      -3.82243549       0.00000000
Si      -1.91818008      -2.63906145       2.33835542       0.00000000
