10
Lattice="16.28999089631971 0.0 0.0 0.0 16.28999089631971 0.0 0.0 0.0 34.2284985734139" Properties=species:S:1:pos:R:3:initial_magmoms:R:1 pbc="T T T"
Si      -1.35016407      -1.33128396      -1.35760570       0.00000000
Si      -1.38873879       1.29906234       1.35548353       0.00000000
Si       1.36557441       1.38342825      -1.35500433       0.00000000
Si       1.21345839      -1.51984071       1.41391161       0.00000000
Si       0.49283766       2.03368988       2.51073023       0.00000000
Si       2.12607306       0.19639224       2.66065114       0.00000000
Si       2.71819827      -2.68389153       0.00821484       0.00000000
Si      -2.69957554      -2.70467757       0.02974458       0.00000000
Si       0.00521280      -2.68885998      -2.71579328       0.00000000
Si      -2.70874355       0.02524950      -2.71575905       0.00000000
