10
Lattice="16.28999089631971 0.0 0.0 0.0 16.28999089631971 0.0 0.0 0.0 34.2284985734139" Properties=species:S:1:pos:R:3:initial_magmoms:R:1 pbc="T T T"
Si       0.08394237       0.78040503      -2.17402430       0.00000000
Si      -1.10162754      -1.99156653       0.41543152       0.00000000
Si      -1.09144629       1.95393663       0.75271933       0.00000000
Si       2.27639718      -0.73948455       0.45849099       0.00000000
Si       0.79983900      -2.35183617       1.70040430       0.00000000
Si       1.70338014       2.35173747      -1.46501479       0.00000000
Si       3.21419619       1.52770878       0.18685348       0.00000000
Si      -2.76959322      -1.45306800       1.84970910       0.00000000
Si      -0.68600448       1.80669132       3.09555868       0.00000000
Si      -2.20872852       1.31696505      -2.60253111       0.00000000
