10
Lattice="16.28999089631971 0.0 0.0 0.0 16.28999089631971 0.0 0.0 0.0 34.2284985734139" Properties=species:S:1:pos:R:3:initial_magmoms:R:1 pbc="T T T"
Si       1.35267273      -1.35390211       1.35757147       0.00000000
Si      -1.34374581      -1.35723430      -1.36390717       0.00000000
Si       1.34478837       1.35185334      -1.37094113       0.00000000
Si      -1.35931905       1.36180653       1.35654461       0.00000000
Si      -0.07161084       2.58290493      -2.80995936       0.00000000
Si       2.71288773      -2.70845263      -0.00030806       0.00000000
Si      -0.00332316      -2.71081468       2.71442414       0.00000000
Si       2.71171485       0.00353819       2.71391071       0.00000000
Si      -2.71761183      -2.71158031      -0.00297788       0.00000000
Si       2.71388142       2.71780242      -0.00547656       0.00000000
