10
Lattice="16.28999089631971 0.0 0.0 0.0 16.28999089631971 0.0 0.0 0.0 34.2284985734139" Properties=species:S:1:pos:R:3:initial_magmoms:R:1 pbc="T T T"
Si      -1.34478837      -1.35185334       1.37094113       0.00000000
Si      -1.41639921       1.23105159      -1.43901823       0.00000000
Si       1.36909305       1.36594908       1.36546457       0.00000000
Si       1.31184999      -1.39687727      -1.42789054       0.00000000
Si       0.14998203       2.41940709      -2.69452354       0.00000000
Si      -2.68568343       2.70746316       0.01088809       0.00000000
Si      -2.68853418      -2.70908765       0.00703396       0.00000000
Si       2.71220355      -2.70556442       0.00880357       0.00000000
Si      -2.70410742       0.00995319       2.72748574       0.00000000
Si       0.00788436      -2.70575545       2.72851260       0.00000000
