10
Lattice="16.28999089631971 0.0 0.0 0.0 16.28999089631971 0.0 0.0 0.0 34.2284985734139" Properties=species:S:1:pos:R:3:initial_magmoms:R:1 pbc="T T T"
Si       1.50004836      -1.20044268      -1.45967514       0.00000000
Si      -1.23308784       1.50113979      -1.48390893       0.00000000
Si       0.78446124       1.98949770       1.30646829       0.00000000
Si      -1.11485502      -1.80148992       1.38067572       0.00000000
Si      -2.69674434      -2.68163441      -0.06322007       0.00000000
Si       0.13220964      -2.55189346      -2.84883953       0.00000000
Si      -2.58326820       0.16537608      -2.85660940       0.00000000
Si      -2.65248441       2.82046689      -0.13612681       0.00000000
Si       2.62369998       2.93329143      -0.02437070       0.00000000
Si       2.91305925      -2.68523450       0.07862291       0.00000000
