10
Lattice="16.28999089631971 0.0 0.0 0.0 16.28999089631971 0.0 0.0 0.0 34.2284985734139" Properties=species:S:1:pos:R:3:initial_magmoms:R:1 pbc="T T T"
Si      -1.14262947      -1.90817476      -0.50730086       0.00000000
Si       1.65279969       0.15837138       1.64108628       0.00000000
Si      -1.77991056       1.21222035       0.90342750       0.00000000
Si       0.93489939       0.76704723      -2.01249993       0.00000000
Si       2.29653162       2.26545030       0.89144752       0.00000000
Si      -1.73597643       3.08113947      -0.50168738       0.00000000
Si      -1.14614811       1.46515518       3.15816264       0.00000000
Si      -2.02391847      -2.70012452       1.47836391       0.00000000
Si       3.13502679      -0.05214429      -1.94637043       0.00000000
Si       0.36228960       3.05626464      -2.04854256       0.00000000
