10
Lattice="16.28999089631971 0.0 0.0 0.0 16.28999089631971 0.0 0.0 0.0 34.2284985734139" Properties=species:S:1:pos:R:3:initial_magmoms:R:1 pbc="T T T"
Si      -2.17464399      -0.35161965      -0.77972563       0.00000000
Si       1.02618529      -2.10047007      -0.46461790       0.00000000
Si       0.63708072       1.55044962      -1.71508834       0.00000000
Si       0.73579161       0.81028089       2.16242083       0.00000000
Si      -1.43613684      -1.34065071      -2.83798909       0.00000000
Si       0.92484520      -1.92212226      -2.85120130       0.00000000
Si       2.65474546       2.13470676       1.12344841       0.00000000
Si      -1.40191155       2.73333168      -2.07866365       0.00000000
Si      -3.20736483       1.78225632      -0.84178194       0.00000000
Si      -3.34226232      -1.81045431       0.62271942       0.00000000
