10
Lattice="16.28999089631971 0.0 0.0 0.0 16.28999089631971 0.0 0.0 0.0 34.2284985734139" Properties=species:S:1:pos:R:3:initial_magmoms:R:1 pbc="T T T"
Si       1.04694201       1.64879235      -1.34121024       0.00000000
Si      -1.72371006      -1.07263134      -1.24434353       0.00000000
Si      -0.78651378       1.51083234       1.68787666       0.00000000
Si       1.71323559      -1.90360053       0.19825157       0.00000000
Si      -0.30431349      -2.39195844      -2.59212565       0.00000000
Si       2.40982857       0.34876890      -2.64114088       0.00000000
Si      -0.59919507       0.16526205       3.60984216       0.00000000
Si       2.53591317       2.72658762       0.08848072       0.00000000
Si       0.57050838       3.45794346       1.27740828       0.00000000
Si       3.55247433      -0.95980680      -1.13258742       0.00000000
