10
Lattice="16.28999089631971 0.0 0.0 0.0 16.28999089631971 0.0 0.0 0.0 34.2284985734139" Properties=species:S:1:pos:R:3:initial_magmoms:R:1 pbc="T T T"
Si       1.23619923       0.97534746       1.73435899       0.00000000
Si      -0.18731871       1.34557029      -1.92196550       0.00000000
Si       1.06375329      -2.10414672      -0.26468913       0.00000000
Si      -2.11581036       0.38416707       1.15969641       0.00000000
Si       0.49451553      -0.54545436       3.34248321       0.00000000
Si       0.59919507      -0.16526205      -3.60984216       0.00000000
Si      -2.41610022       2.34466857      -1.48041762       0.00000000
Si      -1.61909568      -2.95889931      -1.57324536       0.00000000
Si       0.32495292       3.13473357       2.05740774       0.00000000
Si       3.38206464      -1.63338201       0.29210617       0.00000000
