10
Lattice="16.28999089631971 0.0 0.0 0.0 16.28999089631971 0.0 0.0 0.0 34.2284985734139" Properties=species:S:1:pos:R:3:initial_magmoms:R:1 pbc="T T T"
Si       1.06746741       1.40095629       1.51926699       0.00000000
Si      -0.64373193      -2.10707892       0.74963877       0.00000000
Si      -1.64506194       1.45181367      -0.77712427       0.00000000
Si       1.75469364      -0.78887583      -1.31553885       0.00000000
Si      -2.29653162      -2.26545030      -0.89144752       0.00000000
Si      -1.21961601      -1.35009891       2.87475052       0.00000000
Si       0.22372686       0.44453781       3.47683014       0.00000000
Si      -1.36163223      -1.49840307      -2.90394744       0.00000000
Si       3.21295815       0.54911961       1.45594423       0.00000000
Si      -1.93424202       0.79081434      -2.93999007       0.00000000
