10
Lattice="16.28999089631971 0.0 0.0 0.0 16.28999089631971 0.0 0.0 0.0 34.2284985734139" Properties=species:S:1:pos:R:3:initial_magmoms:R:1 pbc="T T T"
Si      -1.64628369      -1.04045859       1.28671844       0.00000000
Si      -0.79215012      -0.02507031      -2.21297635       0.00000000
Si       1.87408305      -1.58477265       0.30699558       0.00000000
Si      -0.23612355      -2.16207396       2.79640983       0.00000000
Si      -3.05703027      -0.34766118      -1.77933526       0.00000000
Si       0.61854759      -1.56978585      -3.24773867       0.00000000
Si       2.03651064       1.22865696       2.85016763       0.00000000
Si      -0.57836016       2.16178074      -3.00834442       0.00000000
Si       2.60872947      -1.89162738      -1.92189704       0.00000000
Si       1.40180337       2.98445832      -1.87291603       0.00000000
