10
Lattice="16.28999089631971 0.0 0.0 0.0 16.28999089631971 0.0 0.0 0.0 34.2284985734139" Properties=species:S:1:pos:R:3:initial_magmoms:R:1 pbc="T T T"
Si       1.34861652       1.32838434      -1.37090348       0.00000000
Si       1.35092970      -1.35606105       1.35603119       0.00000000
Si      -1.32346476      -1.38192957      -1.36792560       0.00000000
Si      -1.36293543       1.35723393       1.35647616       0.00000000
Si      -0.06814107       2.60366328      -2.75215081       0.00000000
Si      -2.73393441      -0.09335799      -2.64490944       0.00000000
Si       2.71000440       0.00066789       2.71329460       0.00000000
Si       2.70993924      -2.71485882      -0.00421011       0.00000000
Si      -0.00472410      -2.71456560       2.71339728       0.00000000
Si       2.71119357       2.71836117      -0.00078726       0.00000000
