10
Lattice="16.28999089631971 0.0 0.0 0.0 16.28999089631971 0.0 0.0 0.0 34.2284985734139" Properties=species:S:1:pos:R:3:initial_magmoms:R:1 pbc="T T T"
Si      -1.34376862      -1.36177884       1.37154013       0.00000000
Si       1.37011932       1.35417141       1.36934950       0.00000000
Si       1.33317360      -1.28713806      -1.48602425       0.00000000
Si      -1.39124419       1.32530553      -1.41093373       0.00000000
Si       0.15776865       2.67245595      -2.68676815       0.00000000
Si      -2.67957957      -2.72311785       0.00540811       0.00000000
Si      -2.70641150       2.71639008      -0.00507267       0.00000000
Si      -2.70227847      -0.00143352       2.72859817       0.00000000
Si       2.71806795      -2.71536381      -0.02116692       0.00000000
Si       0.01286910       2.71471221       2.72801628       0.00000000
