10
Lattice="16.28999089631971 0.0 0.0 0.0 16.28999089631971 0.0 0.0 0.0 34.2284985734139" Properties=species:S:1:pos:R:3:initial_magmoms:R:1 pbc="T T T"
Si      -0.19057671       2.25365634       0.44822244       0.00000000
Si       2.38373199       0.14542083       0.10997623       0.00000000
Si      -0.35453556      -0.58331232      -2.30152553       0.00000000
Si      -1.19928609      -0.74126016       2.08831609       0.00000000
Si       1.87761798       2.01526848       1.61216318       0.00000000
Si      -0.28803978      -2.90064627       1.76526734       0.00000000
Si      -1.71155772      -2.53042344      -1.89105715       0.00000000
Si      -1.30517109       1.49117031      -3.26492139       0.00000000
Si       3.13874091       1.99656756      -1.21925403       0.00000000
Si      -2.09741895       2.91680595       1.60429062       0.00000000
