10
Lattice="16.28999089631971 0.0 0.0 0.0 16.28999089631971 0.0 0.0 0.0 34.2284985734139" Properties=species:S:1:pos:R:3:initial_magmoms:R:1 pbc="T T T"
Si       0.17814744       1.86268005       1.42476205       0.00000000
Si      -1.36730115      -1.37753127       1.53237651       0.00000000
Si       1.96201647      -1.63462005      -0.13509996       0.00000000
Si       0.67080591       0.17094726      -2.46308413       0.00000000
Si       0.70089354      -1.61591913       2.69631725       0.00000000
Si       1.01084337       0.64366677       3.33142740       0.00000000
Si       2.46329235      -1.49635053      -2.46948487       0.00000000
Si      -1.94139333       2.97554022       1.50338495       0.00000000
Si       1.20700755      -3.48576678       1.19413030       0.00000000
Si      -1.18511379      -0.73722024      -3.67693006       0.00000000
