10
Lattice="16.28999089631971 0.0 0.0 0.0 16.28999089631971 0.0 0.0 0.0 34.2284985734139" Properties=species:S:1:pos:R:3:initial_magmoms:R:1 pbc="T T T"
Si      -1.23090498       1.25160957      -1.47408534       0.00000000
Si      -1.42783479      -0.66692889       1.75390348       0.00000000
Si       0.73324548      -1.84265964      -1.28548621       0.00000000
Si       1.76207301       1.45153674       0.66047348       0.00000000
Si       2.91216330      -1.00952388      -1.70091773       0.00000000
Si       0.73852344      -3.44013849       0.48231404       0.00000000
Si      -3.41464464      -1.07549838       0.35323830       0.00000000
Si       3.61538631       0.04750164       0.42563162       0.00000000
Si      -3.44502549       1.00585863      -0.79529961       0.00000000
Si      -0.39721536      -2.72911257       2.45777871       0.00000000
