10
Lattice="16.28999089631971 0.0 0.0 0.0 16.28999089631971 0.0 0.0 0.0 34.2284985734139" Properties=species:S:1:pos:R:3:initial_magmoms:R:1 pbc="T T T"
Si      -0.81930555      -0.09497070      -2.15454828       0.00000000
Si      -1.33789770       1.58393601       1.02599982       0.00000000
Si      -0.98463276      -2.13299631       0.07650074       0.00000000
Si       2.28162627      -0.41314698       0.39191653       0.00000000
Si      -0.90067410      -2.40336144      -2.28434281       0.00000000
Si       2.00834523      -1.93306914       2.21105956       0.00000000
Si      -3.10396176       0.29178648      -1.91282648       0.00000000
Si       0.43207596       1.28656044      -3.46940255       0.00000000
Si       0.24627222      -3.38460588       1.55058608       0.00000000
Si      -3.09682674       2.15613530      -0.48881746       0.00000000
