10
Lattice="16.28999089631971 0.0 0.0 0.0 16.28999089631971 0.0 0.0 0.0 34.2284985734139" Properties=species:S:1:pos:R:3:initial_magmoms:R:1 pbc="T T T"
Si      -1.05010227      -1.64892267       1.26426453       0.00000000
Si      -1.27941660       1.92099825      -0.42884910       0.00000000
Si       0.69030504      -1.27244448      -1.86535153       0.00000000
Si       1.64134782       1.51881444       0.92191090       0.00000000
Si      -2.90111868      -1.89868095      -0.34957585       0.00000000
Si      -0.93625146      -0.34569009       3.36084890       0.00000000
Si       3.29678649       0.91328256      -0.80457554       0.00000000
Si       0.32503437       3.53870995       0.78917270       0.00000000
Si      -0.03816747       3.04948053      -2.14684686       0.00000000
Si       0.97888239      -3.45634704      -1.03287975       0.00000000
