10
Lattice="16.28999089631971 0.0 0.0 0.0 16.28999089631971 0.0 0.0 0.0 34.2284985734139" Properties=species:S:1:pos:R:3:initial_magmoms:R:1 pbc="T T T"
Si      -0.46219617      -0.60808194      -2.28895443       0.00000000
Si       2.01243958       0.80794816       1.11878344       0.00000000
Si      -0.80228250      -1.94584932       1.27351345       0.00000000
Si      -1.68073704       1.84073579       0.17936705       0.00000000
Si      -2.03639661      -0.55522089       2.70180446       0.00000000
Si       0.71444912       2.15337347       2.69757039       0.00000000
Si      -3.43675017       0.75346626       1.26511035       0.00000000
Si      -0.57770856       3.53914748       1.33162321       0.00000000
Si      -2.74546773      -2.76634404      -0.05369531       0.00000000
Si      -1.88866260       1.24748657      -3.25532817       0.00000000
