10
Lattice="16.28999089631971 0.0 0.0 0.0 16.28999089631971 0.0 0.0 0.0 34.2284985734139" Properties=species:S:1:pos:R:3:initial_magmoms:R:1 pbc="T T T"
Si       1.35707103      -1.35762978      -1.36404066       0.00000000
Si      -1.35868374       1.35826020      -1.36321917       0.00000000
Si       1.34355033       1.36001952       1.39491478       0.00000000
Si      -1.34477208      -1.36446669       1.38971205       0.00000000
Si       2.71177182      -2.71338090      -0.00475776       0.00000000
Si      -2.71261080      -2.71591747       0.00054766       0.00000000
Si      -2.71267596       2.71625976      -0.00342285       0.00000000
Si       2.72021823       2.71340901      -0.00270405       0.00000000
Si      -0.00043983      -2.71452881      -2.72051682       0.00000000
Si       2.71497045       0.00026064      -2.72096179       0.00000000
