10
Lattice="16.28999089631971 0.0 0.0 0.0 16.28999089631971 0.0 0.0 0.0 34.2284985734139" Properties=species:S:1:pos:R:3:initial_magmoms:R:1 pbc="T T T"
Si      -1.96985196       1.21854087       0.14745645       0.00000000
Si      -0.24680979      -1.53786722       1.77296876       0.00000000
Si       0.12769731      -0.89431774      -2.19904535       0.00000000
Si       1.80610488       1.57253886       0.25729577       0.00000000
Si       0.42857361       2.53674396      -1.91772116       0.00000000
Si       2.04957522      -1.91124901       1.83646266       0.00000000
Si       2.65901670       0.32540904       2.20428231       0.00000000
Si      -0.48762486       1.00802520      -3.44000026       0.00000000
Si      -1.32612003       3.32561979      -0.60218231       0.00000000
Si      -1.87102053      -3.17297339       1.22644202       0.00000000
