10
Lattice="16.28999089631971 0.0 0.0 0.0 16.28999089631971 0.0 0.0 0.0 34.2284985734139" Properties=species:S:1:pos:R:3:initial_magmoms:R:1 pbc="T T T"
Si       2.17950982      -0.07705170      -0.88042593       0.00000000
Si       0.08073324       2.30220054       0.59646615       0.00000000
Si      -1.80610488      -1.57253886      -0.25729577       0.00000000
Si       0.85291182      -1.24712982       1.94698654       0.00000000
Si      -1.37753127       0.96420510      -2.17501693       0.00000000
Si       2.20819162      -2.24283001      -1.92374538       0.00000000
Si      -3.13222491       1.75308093      -0.85947808       0.00000000
Si       3.54881627       0.34678152       1.08562590       0.00000000
Si       2.41538087       1.82441484      -2.25394789       0.00000000
Si      -3.77595684      -0.35399799      -0.10983931       0.00000000
