10
Lattice="16.28999089631971 0.0 0.0 0.0 16.28999089631971 0.0 0.0 0.0 34.2284985734139" Properties=species:S:1:pos:R:3:initial_magmoms:R:1 pbc="T T T"
Si       2.14549074      -0.85183668      -0.06332276       0.00000000
Si      -1.06746741      -1.40095629      -1.51926699       0.00000000
Si      -0.84374055      -0.95641848       1.95756316       0.00000000
Si       0.01332522       2.09811942      -1.09243737       0.00000000
Si      -2.71252935       0.05085738      -2.29639125       0.00000000
Si       1.56916683       1.48072842      -2.84185691       0.00000000
Si       2.95189461      -0.32718465       2.04652307       0.00000000
Si       0.68722623      -2.18983212      -2.83480584       0.00000000
Si       1.14644133      -1.27826001       3.28340479       0.00000000
Si      -2.18393514       2.30672916      -1.91111506       0.00000000
