10
Lattice="16.28999089631971 0.0 0.0 0.0 16.28999089631971 0.0 0.0 0.0 34.2284985734139" Properties=species:S:1:pos:R:3:initial_magmoms:R:1 pbc="T T T"
Si       0.00947426       1.24002738      -1.97810027       0.00000000
Si      -1.06507167       1.00196532       1.93302131       0.00000000
Si       2.15167442       0.43992774       1.17034148       0.00000000
Si      -1.04961943      -2.29324104       0.27841476       0.00000000
Si       0.67097858      -0.16377966       2.91017703       0.00000000
Si      -0.24218669      -2.25859221       2.67163849       0.00000000
Si      -1.42907024      -0.06750576      -3.22703042       0.00000000
Si      -3.40169150      -0.59891814      -1.70995406       0.00000000
Si       0.04072174      -3.86957547      -1.37287162       0.00000000
Si      -0.40439925       3.16379493       2.61495607       0.00000000
