10
Lattice="16.28999089631971 0.0 0.0 0.0 16.28999089631971 0.0 0.0 0.0 34.2284985734139" Properties=species:S:1:pos:R:3:initial_magmoms:R:1 pbc="T T T"
Si       1.36117611       1.14295527      -1.50509638       0.00000000
Si      -1.55530404      -1.26851859      -1.32351409       0.00000000
Si      -1.39287645       1.54491102       1.21965796       0.00000000
Si       1.59692499      -1.50710193       1.01785343       0.00000000
Si      -2.49668685      -0.20440692       2.50119900       0.00000000
Si       0.31402233       2.62379772       2.45366928       0.00000000
Si      -3.42938709       0.31625406      -1.63050967       0.00000000
Si       0.35539893      -2.87642304       2.49904602       0.00000000
Si       2.93589198      -0.21377367       2.44865138       0.00000000
Si       0.18819837       2.53633671      -2.93478734       0.00000000
