10
Lattice="16.28999089631971 0.0 0.0 0.0 16.28999089631971 0.0 0.0 0.0 34.2284985734139" Properties=species:S:1:pos:R:3:initial_magmoms:R:1 pbc="T T T"
Si       1.36077116       1.35312885       1.37305303       0.00000000
Si      -1.35565380      -1.35938421       1.37421680       0.00000000
Si       1.31516730      -1.39108455      -1.40586106       0.00000000
Si      -1.30670235       1.44648684      -1.40084316       0.00000000
Si      -2.70435177      -2.71723716       0.00426830       0.00000000
Si       2.70641150      -2.71639008       0.00507267       0.00000000
Si      -2.69882946       2.72528442       0.00887888       0.00000000
Si      -2.71137276      -0.00338832       2.73363661       0.00000000
Si       0.00236017       2.71298547       2.73356815       0.00000000
Si       2.72822381       2.72147256       0.01761057       0.00000000
