10
Lattice="16.28999089631971 0.0 0.0 0.0 16.28999089631971 0.0 0.0 0.0 34.2284985734139" Properties=species:S:1:pos:R:3:initial_magmoms:R:1 pbc="T T T"
Si       1.31180112      -1.21580415      -1.67137852       0.00000000
Si       1.96128342       0.88576875       1.20604182       0.00000000
Si      -1.62718855      -1.21218777       1.53063085       0.00000000
Si      -1.37738140       1.48993227      -1.65025952       0.00000000
Si       2.56995927       2.73329910      -0.29621359       0.00000000
Si       2.65297311      -2.64862368      -0.34447580       0.00000000
Si      -2.77046378      -2.62840779      -0.11172188       0.00000000
Si       3.66559209      -0.95575059       0.99988346       0.00000000
Si       1.27725003      -2.05745958       3.08570087       0.00000000
Si      -0.02402775      -2.56165137      -3.05119852       0.00000000
