10
Lattice="16.28999089631971 0.0 0.0 0.0 16.28999089631971 0.0 0.0 0.0 34.2284985734139" Properties=species:S:1:pos:R:3:initial_magmoms:R:1 pbc="T T T"
Si      -1.48897116      -1.07779527      -1.42969096       0.00000000
Si       1.16655948       1.62531846      -1.28175530       0.00000000
Si      -1.96540479       0.73135584       1.18892756       0.00000000
Si       1.62061065      -1.83301596       0.18928370       0.00000000
Si      -0.12608460      -2.37781872      -2.72962160       0.00000000
Si      -2.53591317      -2.72658762      -0.08848072       0.00000000
Si       2.58997968       0.33137118      -2.68509030       0.00000000
Si      -3.32242695      -1.21575528       1.59939595       0.00000000
Si      -2.85532749       0.34029810      -2.68430304       0.00000000
Si       0.77286276       1.46008899       3.60042932       0.00000000
