10
Lattice="16.28999089631971 0.0 0.0 0.0 16.28999089631971 0.0 0.0 0.0 34.2284985734139" Properties=species:S:1:pos:R:3:initial_magmoms:R:1 pbc="T T T"
Si       2.19909965       0.22652874      -0.81046284       0.00000000
Si      -1.40178708      -1.83831021       0.55306439       0.00000000
Si       0.20357613       1.07952201       2.12617283       0.00000000
Si      -0.98526807       1.91875023      -1.04229259       0.00000000
Si      -0.23299587      -2.42936028       2.48978238       0.00000000
Si       2.85977207       2.38835835      -0.12852808       0.00000000
Si       2.05224678       2.53946439       2.06661521       0.00000000
Si      -3.65703984      -1.12731687       0.61299852       0.00000000
Si       0.17215272      -0.55724832       3.83852289       0.00000000
Si      -3.36900006       1.77332940      -1.15226882       0.00000000
