10
Lattice="16.28999089631971 0.0 0.0 0.0 16.28999089631971 0.0 0.0 0.0 34.2284985734139" Properties=species:S:1:pos:R:3:initial_magmoms:R:1 pbc="T T T"
Si      -0.40514859      -1.87211196      -1.34874051       0.00000000
Si       0.03142341       1.63677033      -1.71235006       0.00000000
Si       1.76572197      -1.14103305       1.12978068       0.00000000
Si      -1.55584161       0.61739100       1.74941954       0.00000000
Si       2.93705020       0.81691092       1.60603628       0.00000000
Si      -1.56916683      -1.48072842       2.84185691       0.00000000
Si       0.57632391      -2.33256510       2.77853415       0.00000000
Si      -0.88194060      -3.67056054       0.00705107       0.00000000
Si      -0.66876966       2.69491986       2.62053532       0.00000000
Si      -1.57946211       3.25661535      -1.25248992       0.00000000
