10
Lattice="16.28999089631971 0.0 0.0 0.0 16.28999089631971 0.0 0.0 0.0 34.2284985734139" Properties=species:S:1:pos:R:3:initial_magmoms:R:1 pbc="T T T"
Si      -2.31720363      -0.42212277      -0.29977336       0.00000000
Si       0.96966225      -0.26376768      -2.15560936       0.00000000
Si       1.03834089      -1.63527165       1.40829813       0.00000000
Si       0.02422323       2.13925071       1.12950686       0.00000000
Si       3.27641489      -0.21442527      -1.75427999       0.00000000
Si      -2.14643556       2.16081378       2.16947191       0.00000000
Si      -3.41989002       0.21004326       1.73350328       0.00000000
Si       0.20764863      -1.49213142       3.55877321       0.00000000
Si      -2.62715346      -2.68170867      -0.93488350       0.00000000
Si       0.41480856       1.77072693      -3.46173537       0.00000000
