10
Lattice="16.28999089631971 0.0 0.0 0.0 16.28999089631971 0.0 0.0 0.0 34.2284985734139" Properties=species:S:1:pos:R:3:initial_magmoms:R:1 pbc="T T T"
Si      -0.30994983      -2.25958590      -0.63511015       0.00000000
Si       2.31720363       0.42212277       0.29977336       0.00000000
Si      -1.10268639       0.63216603       2.03327664       0.00000000
Si      -0.83269593       1.21901328      -1.90666535       0.00000000
Si      -1.01084337      -0.64366677      -3.33142740       0.00000000
Si       0.17076807       2.58293655       2.46924527       0.00000000
Si      -2.37814452      -2.02119804      -1.79905089       0.00000000
Si      -0.22587714      -3.34881675       1.49102846       0.00000000
Si       2.34142686       2.56137348       1.42928021       0.00000000
Si       3.28686588       0.15835509      -1.85583600       0.00000000
