10
Lattice="16.28999089631971 0.0 0.0 0.0 16.28999089631971 0.0 0.0 0.0 34.2284985734139" Properties=species:S:1:pos:R:3:initial_magmoms:R:1 pbc="T T T"
Si       1.18934919       1.82112426      -0.77003896       0.00000000
Si      -0.41630724       0.85660965       2.15074891       0.00000000
Si      -1.79186742      -0.93998187      -1.25047044       0.00000000
Si       1.36182771      -1.66210128       1.06074176       0.00000000
Si       1.50633339      -0.33381468       2.96836551       0.00000000
Si      -2.26411452      -2.73639420       0.19612941       0.00000000
Si      -0.04833243      -3.50076987       0.76476777       0.00000000
Si       2.83819923       0.95982309      -2.13353197       0.00000000
Si       2.11239176       2.77926948       1.21028616       0.00000000
Si      -2.68395669       0.35556183       2.58243898       0.00000000
