10
Lattice="16.28999089631971 0.0 0.0 0.0 16.28999089631971 0.0 0.0 0.0 34.2284985734139" Properties=species:S:1:pos:R:3:initial_magmoms:R:1 pbc="T T T"
Si       1.87801124      -0.44996238      -1.36773734       0.00000000
Si       0.46219617       0.60808194       2.28895443       0.00000000
Si      -0.65068776      -2.37262221      -0.42727459       0.00000000
Si      -1.42646643       1.85556851      -0.96637374       0.00000000
Si      -1.21854087       2.44881773       2.46832148       0.00000000
Si       0.95496867      -1.40810760      -3.34806246       0.00000000
Si       3.15391409      -2.06926983      -0.04685884       0.00000000
Si       1.27195287      -3.56304654       0.39034202       0.00000000
Si      -0.34008633      -1.33776738       3.56246788       0.00000000
Si      -2.28327156      -2.15826210       2.23525912       0.00000000
