10
Lattice="16.28999089631971 0.0 0.0 0.0 16.28999089631971 0.0 0.0 0.0 34.2284985734139" Properties=species:S:1:pos:R:3:initial_magmoms:R:1 pbc="T T T"
Si      -0.54547065       1.91265777      -1.19741623       0.00000000
Si      -2.13859355      -0.90297099       0.28933366       0.00000000
Si       1.09978677       0.69744006       1.96365583       0.00000000
Si       1.17247275      -1.50623856      -1.40874310       0.00000000
Si       1.09159290      -1.39264839       3.10415004       0.00000000
Si      -3.28384313       0.76634676       1.49099423       0.00000000
Si       3.22416567       1.56608802       1.24249519       0.00000000
Si      -1.28656791       1.52541189      -3.31061646       0.00000000
Si       1.48160808      -3.56739597      -0.22573707       0.00000000
Si       0.05186736       2.61830799       2.96610643       0.00000000
