10
Lattice="16.28999089631971 0.0 0.0 0.0 16.28999089631971 0.0 0.0 0.0 34.2284985734139" Properties=species:S:1:pos:R:3:initial_magmoms:R:1 pbc="T T T"
Si       1.35834583       1.35671265       1.35733187       0.00000000
Si      -1.35892621       1.35534429      -1.35880370       0.00000000
Si      -1.35700399      -1.35870003       1.35743456       0.00000000
Si       1.35841099      -1.35985662      -1.36051512       0.00000000
Si      -2.70118963       0.01229895      -2.72468927       0.00000000
Si       2.71617109       2.71231758      -0.00013691       0.00000000
Si      -2.71389583       2.71463076      -0.00092417       0.00000000
Si      -2.71458001      -0.00143352       2.71449260       0.00000000
Si       0.00068152       2.71446786       2.71473220       0.00000000
Si      -2.71373293      -2.71637379       0.00006846       0.00000000
