10
Lattice="16.28999089631971 0.0 0.0 0.0 16.28999089631971 0.0 0.0 0.0 34.2284985734139" Properties=species:S:1:pos:R:3:initial_magmoms:R:1 pbc="T T T"
Si      -1.30424256      -1.86808833      -0.08190884       0.00000000
Si      -0.83996127       1.29604869      -1.81554904       0.00000000
Si       2.25919494      -0.44424459       0.74080781       0.00000000
Si      -2.38466215       0.00672777       1.04954904       0.00000000
Si      -1.35182565       1.78663833       2.26900844       0.00000000
Si       0.47687346       0.87011406       3.42559005       0.00000000
Si       2.57538384       1.31727456       2.27838705       0.00000000
Si       3.38328639      -0.81643851      -1.37537030       0.00000000
Si      -2.04533982      -2.25533421      -2.19510907       0.00000000
Si      -0.62214768       3.52618227      -1.13354582       0.00000000
