10
Lattice="16.28999089631971 0.0 0.0 0.0 16.28999089631971 0.0 0.0 0.0 34.2284985734139" Properties=species:S:1:pos:R:3:initial_magmoms:R:1 pbc="T T T"
Si       1.20136632      -1.39681863       1.45768988       0.00000000
Si      -1.27991019      -1.39649283      -1.41006573       0.00000000
Si       1.45925331       1.08488142      -1.57956535       0.00000000
Si      -1.51652200       1.30579011       1.42841081       0.00000000
Si      -1.40471798       0.40768983      -3.14562272       0.00000000
Si       2.59205991       2.57526981      -0.02710556       0.00000000
Si       2.63405553      -2.68837128       0.09503890       0.00000000
Si       2.54915205      -0.04846275       2.82086798       0.00000000
Si      -0.16865689       2.66901876       2.81296120       0.00000000
Si      -2.83355983      -2.67180435       0.03923615       0.00000000
