10
Lattice="16.28999089631971 0.0 0.0 0.0 16.28999089631971 0.0 0.0 0.0 34.2284985734139" Properties=species:S:1:pos:R:3:initial_magmoms:R:1 pbc="T T T"
Si       1.17295249       1.55732400       1.33775316       0.00000000
Si       1.34929989      -1.36735002      -1.40918807       0.00000000
Si      -1.36916947       1.35760860      -1.42674730       0.00000000
Si      -1.94000365      -0.94995135       1.19166584       0.00000000
Si      -0.62079058       3.30699936       1.45187104       0.00000000
Si      -2.66323078       2.58561396       0.13677716       0.00000000
Si       2.66013664       2.63638989      -0.08344913       0.00000000
Si       2.62183885      -2.86370055       0.12147701       0.00000000
Si       2.69871136       0.00604359      -2.79653835       0.00000000
Si      -0.01597546      -2.71062342      -2.79369739       0.00000000
