10
Lattice="16.28999089631971 0.0 0.0 0.0 16.28999089631971 0.0 0.0 0.0 34.2284985734139" Properties=species:S:1:pos:R:3:initial_magmoms:R:1 pbc="T T T"
Si       2.25264636       0.47920293       0.21084767       0.00000000
Si      -0.94615578       1.41358104      -1.58775825       0.00000000
Si      -0.87241095       0.23970735       2.14783949       0.00000000
Si      -0.21781359      -2.23013358      -0.68200322       0.00000000
Si      -0.29641284       3.45641939      -0.55299593       0.00000000
Si      -3.18422978      -0.00726534       1.57481987       0.00000000
Si       3.30804288      -0.65754585      -1.53586782       0.00000000
Si      -2.49856997      -2.45394189      -1.35678421       0.00000000
Si       0.62214768      -3.52618227       1.13354582       0.00000000
Si      -0.72967797      -1.73954394       3.40255426       0.00000000
