10
Lattice="16.28999089631971 0.0 0.0 0.0 16.28999089631971 0.0 0.0 0.0 34.2284985734139" Properties=species:S:1:pos:R:3:initial_magmoms:R:1 pbc="T T T"
Si       1.38727106      -1.17538866       1.37964886       0.00000000
Si      -1.64885004       0.86130117       1.36349300       0.00000000
Si      -0.79033704      -1.63709613      -1.48514115       0.00000000
Si       0.87451073       1.97048727      -0.93108414       0.00000000
Si      -1.47089808       1.88947710      -2.01807918       0.00000000
Si       3.05523674      -1.71388719      -0.05462871       0.00000000
Si      -2.30139486      -0.27789111      -2.72955314       0.00000000
Si      -2.73360114       2.35812283      -0.08334644       0.00000000
Si      -2.83819923      -0.95982309       2.13353197       0.00000000
Si       3.06541799       2.23161597       0.28265910       0.00000000
