10
Lattice="10.86 0.0 0.0 0.0 10.86 0.0 0.0 0.0 10.86" Properties=species:S:1:pos:R:3:initial_magmoms:R:1 pbc="T T T"
Si       1.29737904       1.37389860       1.20700212       0.00000000
Si      -0.87995322       1.18681338      -1.71448992       0.00000000
Si      -1.41762096      -1.34110140       1.20700212       0.00000000
Si       1.29737904      -1.34110140      -1.50799788       0.00000000
Si       2.65487904       0.01639860       2.56450212       0.00000000
Si       0.01738686       2.47013958       2.76534696       0.00000000
Si      -0.06012096      -2.69860140       2.56450212       0.00000000
Si       2.65487904      -2.69860140      -0.15049788       0.00000000
Si      -2.58299670       0.10409310      -2.79020550       0.00000000
Si       2.65487904       2.73139860      -0.15049788       0.00000000
