10
Lattice="10.86 0.0 0.0 0.0 10.86 0.0 0.0 0.0 10.86" Properties=species:S:1:pos:R:3:initial_magmoms:R:1 pbc="T T T"
Si      -1.43500782      -1.09624098       1.15665516       0.00000000
Si       1.27999218      -1.09624098      -1.55834484       0.00000000
Si       1.27999218       1.61875902       1.15665516       0.00000000
Si      -0.07750782      -2.45374098       2.51415516       0.00000000
Si       2.63749218      -2.45374098      -0.20084484       0.00000000
Si       2.63749218       0.26125902       2.51415516       0.00000000
Si      -0.01738686      -2.47013958      -2.76534696       0.00000000
Si      -2.98906296      -2.19885678      -0.32203158       0.00000000
Si      -2.79250782       0.26125902       2.51415516       0.00000000
Si      -0.07750782       2.97625902       2.51415516       0.00000000
