10
Lattice="16.28999089631971 0.0 0.0 0.0 16.28999089631971 0.0 0.0 0.0 34.33025523377368" Properties=species:S:1:pos:R:3:initial_magmoms:R:1 pbc="T T T"
Si      -1.54713365       1.75760955      -0.16021939       0.00000000
Si       0.96334988      -0.00680922       2.15055138       0.00000000
Si      -1.15338806      -2.09820087      -0.05987200       0.00000000
Si       1.55471760       0.75271203      -1.66793638       0.00000000
Si      -0.12408582       3.64662143      -0.24783025       0.00000000
Si       2.27698362      -1.99199007       2.07447549       0.00000000
Si       1.84925709      -1.60217037      -2.94361505       0.00000000
Si      -3.28933286       1.38486177       1.44496125       0.00000000
Si       2.35217826       1.84946886       2.44888147       0.00000000
Si       0.95806377       3.08120693      -2.18683848       0.00000000
