10
Lattice="16.28999089631971 0.0 0.0 0.0 16.28999089631971 0.0 0.0 0.0 34.33025523377368" Properties=species:S:1:pos:R:3:initial_magmoms:R:1 pbc="T T T"
Si      -1.07909847       0.02577078      -2.03791375       0.00000000
Si       2.21250780       0.30392253      -0.74517294       0.00000000
Si      -0.51623010       1.70134389       1.54702516       0.00000000
Si      -0.04590522      -2.12757174       1.10131520       0.00000000
Si       2.96536644       0.09982512       1.43679064       0.00000000
Si      -2.41403791      -1.82907378      -1.57624022       0.00000000
Si       1.59871689       1.61067375       2.56917475       0.00000000
Si      -2.39273221       2.01095163      -1.96183786       0.00000000
Si       2.18100294      -2.18038392       2.06139566       0.00000000
Si      -1.03345389      -3.57861978      -0.63167705       0.00000000
