10
Lattice="16.28999089631971 0.0 0.0 0.0 16.28999089631971 0.0 0.0 0.0 34.33025523377368" Properties=species:S:1:pos:R:3:initial_magmoms:R:1 pbc="T T T"
Si       1.89667728       1.09521647       0.79502050       0.00000000
Si      -0.16555527      -0.04992885      -2.34764149       0.00000000
Si      -1.61214148       1.60916760       0.71554591       0.00000000
Si       0.32211846      -2.21581467       0.86289145       0.00000000
Si       1.03702140       1.80930491       2.88882393       0.00000000
Si      -1.77047376       2.87520848      -1.24385450       0.00000000
Si      -1.55438366      -1.90620693      -2.64597157       0.00000000
Si      -3.09266243      -1.63584180       1.59285607       0.00000000
Si       2.43706545      -2.30648481       1.88504104       0.00000000
Si       2.11789548       3.20392439      -0.29558366       0.00000000
