10
Lattice="16.28999089631971 0.0 0.0 0.0 16.28999089631971 0.0 0.0 0.0 34.33025523377368" Properties=species:S:1:pos:R:3:initial_magmoms:R:1 pbc="T T T"
Si       1.35063648      -1.34684091       1.36171033       0.00000000
Si      -1.36360332      -1.35501849      -1.35855882       0.00000000
Si      -1.36489023       1.36736631       1.35820865       0.00000000
Si       1.36697535       1.37044512      -1.38838839       0.00000000
Si      -2.50575386       0.13561425      -2.78931420       0.00000000
Si       2.70143586      -2.69985573      -0.00346736       0.00000000
Si      -0.00706986      -2.70619254       2.71741287       0.00000000
Si       2.70845685       0.00853596       2.71737854       0.00000000
Si      -2.73180368      -2.69576694       0.00418829       0.00000000
Si       2.70987408       2.71858923       0.00188817       0.00000000
