10
Lattice="16.28999089631971 0.0 0.0 0.0 16.28999089631971 0.0 0.0 0.0 34.33025523377368" Properties=species:S:1:pos:R:3:initial_magmoms:R:1 pbc="T T T"
Si      -1.35591444      -1.35635427      -1.35941021       0.00000000
Si       1.35734796      -1.35751086       1.35783101       0.00000000
Si       1.35770634       1.35935163      -1.35570254       0.00000000
Si      -1.35785295       1.35783666       1.35838030       0.00000000
Si       0.00706986       2.70619254      -2.71741287       0.00000000
Si      -2.71323634       0.00084708       2.71446047       0.00000000
Si       0.00021177      -2.71427075       2.71432315       0.00000000
Si       2.71378368      -2.71513575       0.00092692       0.00000000
Si       2.70850572       0.00633681      -2.72088023       0.00000000
Si      -2.71580853       2.71438641       0.00068661       0.00000000
