10
Lattice="16.28999089631971 0.0 0.0 0.0 16.28999089631971 0.0 0.0 0.0 34.33025523377368" Properties=species:S:1:pos:R:3:initial_magmoms:R:1 pbc="T T T"
Si      -1.35782037      -1.35537687      -1.35566821       0.00000000
Si       1.35698958      -1.35726651       1.35772802       0.00000000
Si      -1.35832536       1.35832536       1.35793400       0.00000000
Si       1.35791811       1.36041048      -1.35645780       0.00000000
Si       0.00141723       2.71005327      -2.71549038       0.00000000
Si      -2.70845685      -0.00853596      -2.71737854       0.00000000
Si       2.71357191      -2.71350675       0.00030897       0.00000000
Si       2.71189404      -0.00433314      -2.71521573       0.00000000
Si      -2.71357191       0.00188964       2.71397984       0.00000000
Si       0.00114030      -2.71350675       2.71545605       0.00000000
