10
Lattice="16.28999089631971 0.0 0.0 0.0 16.28999089631971 0.0 0.0 0.0 34.33025523377368" Properties=species:S:1:pos:R:3:initial_magmoms:R:1 pbc="T T T"
Si      -2.03861205       1.22274369       0.29307755       0.00000000
Si       0.52826841      -1.90255797       1.42120470       0.00000000
Si       1.72470375       1.70961921      -0.33938909       0.00000000
Si       0.24011460      -0.72563805      -2.35759727       0.00000000
Si      -1.28490633       3.43730403       0.35597062       0.00000000
Si       0.87535944      -0.84387087       3.48308098       0.00000000
Si       2.22697332      -2.98747197       0.08908706       0.00000000
Si       0.28761624       3.37514139      -1.56460226       0.00000000
Si      -3.02446656       0.45493083       2.26377263       0.00000000
Si       3.18375018       0.87358383      -2.03866902       0.00000000
