10
Lattice="16.28999089631971 0.0 0.0 0.0 16.28999089631971 0.0 0.0 0.0 34.33025523377368" Properties=species:S:1:pos:R:3:initial_magmoms:R:1 pbc="T T T"
Si      -1.98384507      -0.04065984      -1.23503162       0.00000000
Si       0.00645084       1.72758708       1.60918153       0.00000000
Si       0.74249820      -2.25135945       0.29644192       0.00000000
Si       1.40820534       0.60341418      -1.91336351       0.00000000
Si       2.37765582      -1.17131616       1.68442319       0.00000000
Si       1.01991690       0.14004513       3.12070575       0.00000000
Si       0.38493270      -2.69983944      -2.08635377       0.00000000
Si      -0.98332956      -0.85297698      -3.17754154       0.00000000
Si       1.23950610       3.25417185       0.13721811       0.00000000
Si      -3.01242825       2.06415477      -1.38914022       0.00000000
