10
Lattice="16.28999089631971 0.0 0.0 0.0 16.28999089631971 0.0 0.0 0.0 34.33025523377368" Properties=species:S:1:pos:R:3:initial_magmoms:R:1 pbc="T T T"
Si      -1.11467583       0.97155189       1.84175056       0.00000000
Si      -0.97420716      -2.13017814      -0.38247359       0.00000000
Si       0.02137248       1.56323727      -1.78994618       0.00000000
Si       2.16839448      -0.35254818       0.90710884       0.00000000
Si      -0.98372052      -1.13298579       3.02834217       0.00000000
Si      -0.33031233       3.25176093       1.21714555       0.00000000
Si       1.15440714      -3.23547093      -0.71149494       0.00000000
Si       2.35551771       1.93077225      -1.78517427       0.00000000
Si       3.02759424       1.77860736       0.46682307       0.00000000
Si       2.99617083      -1.70852778      -0.84047378       0.00000000
