10
Lattice="16.28999089631971 0.0 0.0 0.0 16.28999089631971 0.0 0.0 0.0 34.33025523377368" Properties=species:S:1:pos:R:3:initial_magmoms:R:1 pbc="T T T"
Si      -1.17051795      -1.30153842      -1.51676100       0.00000000
Si       1.17895617      -1.45176480       1.47454365       0.00000000
Si      -1.51045767       1.23145884       1.47066433       0.00000000
Si       1.71400122       1.02714966      -1.60351360       0.00000000
Si       2.59675632       2.68780669       0.00820837       0.00000000
Si       2.63573829      -2.73333168       0.19628334       0.00000000
Si       2.53757475      -0.11161908       2.83643593       0.00000000
Si      -2.52289746       2.86823473       0.13711168       0.00000000
Si       0.40832514      -2.44312533      -2.95118285       0.00000000
Si      -0.16562043       2.59756172       2.84364529       0.00000000
