10
Lattice="16.28999089631971 0.0 0.0 0.0 16.28999089631971 0.0 0.0 0.0 34.33025523377368" Properties=species:S:1:pos:R:3:initial_magmoms:R:1 pbc="T T T"
Si       1.45678212      -1.28156688      -1.27826030       0.00000000
Si       1.35861858       1.34014572       1.36189229       0.00000000
Si      -1.35786924      -1.37259540       1.36216693       0.00000000
Si      -1.17895617       1.45176480      -1.47454365       0.00000000
Si       0.22032225      -2.52394002      -2.81711283       0.00000000
Si      -2.68941384       2.68322364      -0.00387932       0.00000000
Si      -2.34947412       0.15022638      -2.99130465       0.00000000
Si       0.00346977       2.69990789       2.72336231       0.00000000
Si      -2.70966231      -0.01457955       2.72047857       0.00000000
Si      -2.71917567      -2.71332756      -0.01727499       0.00000000
