10
Lattice="16.28999089631971 0.0 0.0 0.0 16.28999089631971 0.0 0.0 0.0 34.33025523377368" Properties=species:S:1:pos:R:3:initial_magmoms:R:1 pbc="T T T"
Si      -1.35553977      -1.35791811       1.35673245       0.00000000
Si      -1.35648459       1.35775521      -1.35669811       0.00000000
Si       1.35738054      -1.35725022      -1.35690410       0.00000000
Si       1.35834165       1.35757602       1.35711008       0.00000000
Si      -0.00443088      -2.71350675       2.71188570       0.00000000
Si       0.00260640      -2.71349046      -2.71439181       0.00000000
Si       0.00000000       2.71600241      -2.71226333       0.00000000
Si      -2.71313208       0.00151497      -2.71514707       0.00000000
Si       2.71318095       0.00060273       2.71555904       0.00000000
Si       2.71440270      -2.71456560       0.00003433       0.00000000
