10
Lattice="16.28999089631971 0.0 0.0 0.0 16.28999089631971 0.0 0.0 0.0 34.33025523377368" Properties=species:S:1:pos:R:3:initial_magmoms:R:1 pbc="T T T"
Si       1.21774266       1.41573232      -1.43919376       0.00000000
Si       0.74360592      -2.21198652      -0.62117199       0.00000000
Si      -2.32753149       0.03430674      -0.68461433       0.00000000
Si       0.53576181       0.91497672       2.37280558       0.00000000
Si      -2.03299200      -2.32057566      -1.96029300       0.00000000
Si       3.15594315      -1.69608222      -0.94343027       0.00000000
Si      -0.18893142      -3.50267580       1.23599287       0.00000000
Si       2.45522880      -0.10797012      -2.80516105       0.00000000
Si       2.69351892       2.58806139       0.11929770       0.00000000
Si       1.18772019       3.14497088       1.90841995       0.00000000
