10
Lattice="16.28999089631971 0.0 0.0 0.0 16.28999089631971 0.0 0.0 0.0 34.33025523377368" Properties=species:S:1:pos:R:3:initial_magmoms:R:1 pbc="T T T"
Si       0.75285864      -0.20409741       2.18196358       0.00000000
Si       1.10454345      -1.89262107      -0.82512815       0.00000000
Si      -2.21250780      -0.30392253       0.74517294       0.00000000
Si       0.61656021       2.05850214      -1.01940317       0.00000000
Si      -3.29160627      -0.27815175      -1.29274081       0.00000000
Si      -0.61379091       1.30675122       3.31434768       0.00000000
Si       1.08317097      -3.45585834       0.96481803       0.00000000
Si      -0.03150486      -2.48430645       2.80656859       0.00000000
Si       0.07731234      -2.41015437      -2.87378727       0.00000000
Si       1.93262931       3.18539547       0.58275641       0.00000000
