10
Lattice="16.28999089631971 0.0 0.0 0.0 16.28999089631971 0.0 0.0 0.0 34.33025523377368" Properties=species:S:1:pos:R:3:initial_magmoms:R:1 pbc="T T T"
Si       1.36664955      -1.51084863      -1.13238410       0.00000000
Si      -2.11494699       0.09067014      -1.02214959       0.00000000
Si       0.07144794      -1.00594008       2.16308193       0.00000000
Si       1.24613613       1.91896200      -0.72653160       0.00000000
Si       1.78305453      -2.48652189       1.54170396       0.00000000
Si      -1.59871689      -1.61067375      -2.56917475       0.00000000
Si      -0.54038817       3.40170128      -1.09002054       0.00000000
Si       0.61379091      -1.30675122      -3.31434768       0.00000000
Si       1.05870339       0.60965325       3.55335505       0.00000000
Si      -2.43706545       2.30648481      -1.88504104       0.00000000
