10
Lattice="16.28999089631971 0.0 0.0 0.0 16.28999089631971 0.0 0.0 0.0 34.33025523377368" Properties=species:S:1:pos:R:3:initial_magmoms:R:1 pbc="T T T"
Si       1.12715397       1.22546412       1.69461101       0.00000000
Si      -0.01827738       1.11700530      -2.12181694       0.00000000
Si      -1.94701338      -0.80293410       1.36418211       0.00000000
Si       1.57713264      -1.90464309      -0.48010889       0.00000000
Si       0.50559273      -3.35347569       1.27279492       0.00000000
Si       3.32959455       1.38302100       0.76800257       0.00000000
Si      -1.00553283      -0.49858803      -3.51209006       0.00000000
Si      -2.77879707      -2.48187924      -0.11229433       0.00000000
Si      -0.65808342       3.35720677      -1.76237897       0.00000000
Si      -0.64133730       2.66734089       2.71185137       0.00000000
