10
Lattice="16.28999089631971 0.0 0.0 0.0 16.28999089631971 0.0 0.0 0.0 34.33025523377368" Properties=species:S:1:pos:R:3:initial_magmoms:R:1 pbc="T T T"
Si      -0.35556183       1.28400453      -2.05236680       0.00000000
Si       0.88275510       1.66065703       1.61172197       0.00000000
Si       1.76849127      -1.44187677      -1.01724036       0.00000000
Si      -1.71400122      -1.02714966       1.60351360       0.00000000
Si      -2.88451917      -2.32868808       0.08675260       0.00000000
Si       2.18199663       0.24037524       3.07236872       0.00000000
Si       1.91863620       3.27850001       0.25016471       0.00000000
Si      -2.53276920       2.29007168      -1.73937768       0.00000000
Si       0.64133730      -2.66734089      -2.71185137       0.00000000
Si       1.56107070       2.83002002      -2.13263098       0.00000000
