10
Lattice="16.28999089631971 0.0 0.0 0.0 16.28999089631971 0.0 0.0 0.0 34.33025523377368" Properties=species:S:1:pos:R:3:initial_magmoms:R:1 pbc="T T T"
Si      -1.35304740       1.36024758      -1.35868927       0.00000000
Si       1.36169739      -1.35534592      -1.35910123       0.00000000
Si      -1.34258922      -1.35555280       1.37990538       0.00000000
Si       1.36813194       1.37023335       1.36603595       0.00000000
Si      -2.52159426       0.17309754       2.80814779       0.00000000
Si      -2.71117728      -2.71496709       0.00109857       0.00000000
Si      -2.71236645       0.00151497      -2.71627997       0.00000000
Si       0.00275301      -2.71338161      -2.71627997       0.00000000
Si       2.71852407      -2.71341620      -0.00085826       0.00000000
Si       0.00280188       2.71648782      -2.71641729       0.00000000
