10
Lattice="16.28999089631971 0.0 0.0 0.0 16.28999089631971 0.0 0.0 0.0 34.33025523377368" Properties=species:S:1:pos:R:3:initial_magmoms:R:1 pbc="T T T"
Si       1.34231229       1.33289667       1.36631059       0.00000000
Si       1.35773892      -1.31136129      -1.43628256       0.00000000
Si      -1.37660274      -1.37116188       1.36068043       0.00000000
Si      -1.01346606       1.58754195      -1.51152422       0.00000000
Si      -1.01991690      -0.14004513      -3.12070575       0.00000000
Si      -0.27741870      -2.39140458      -2.82426383       0.00000000
Si      -2.71106325       2.69913897      -0.02424061       0.00000000
Si       2.69775432       2.72230335      -0.00768312       0.00000000
Si      -0.01166364       2.69764029       2.72506852       0.00000000
Si       2.68436394      -2.74054815      -0.00828733       0.00000000
