10
Lattice="16.28999089631971 0.0 0.0 0.0 16.28999089631971 0.0 0.0 0.0 34.33025523377368" Properties=species:S:1:pos:R:3:initial_magmoms:R:1 pbc="T T T"
Si       1.27158111      -2.00031426       0.03776056       0.00000000
Si      -1.82172699      -1.01529054       1.18079391       0.00000000
Si       1.00911663       1.87507674       1.16536245       0.00000000
Si      -0.59684931      -0.04999401      -2.37061260       0.00000000
Si       2.23576992       0.30123468       2.60617660       0.00000000
Si       0.24132006      -2.27698362      -2.57807045       0.00000000
Si      -0.49510197      -2.44447740       2.60878914       0.00000000
Si       3.29416380      -1.21345839       1.10601914       0.00000000
Si      -2.79117747       0.75943980      -2.41699280       0.00000000
Si      -0.48171159       3.01837410       2.60939335       0.00000000
