10
Lattice="16.28999089631971 0.0 0.0 0.0 16.28999089631971 0.0 0.0 0.0 34.33025523377368" Properties=species:S:1:pos:R:3:initial_magmoms:R:1 pbc="T T T"
Si      -1.30666977      -1.22948775      -1.53853669       0.00000000
Si      -1.53327996       1.06069077       1.45866933       0.00000000
Si       0.67681692       1.89309348      -1.30533114       0.00000000
Si       1.17149535      -1.62131112       1.43726784       0.00000000
Si       2.65940766       2.49150663      -0.12488324       0.00000000
Si      -0.18199188       2.42323524       2.81407663       0.00000000
Si      -2.53972503      -2.75607252      -0.06657327       0.00000000
Si      -2.80057680       2.51599050       0.17031936       0.00000000
Si      -1.08585882       3.49539417      -0.97296392       0.00000000
Si       2.53030941      -0.29216115       2.80999132       0.00000000
