10
Lattice="16.28999089631971 0.0 0.0 0.0 16.28999089631971 0.0 0.0 0.0 34.33025523377368" Properties=species:S:1:pos:R:3:initial_magmoms:R:1 pbc="T T T"
Si      -1.26729684       1.45529973      -1.28834997       0.00000000
Si       1.35128808       1.36254447       1.35540730       0.00000000
Si      -1.36114353      -1.35702216       1.35231757       0.00000000
Si       1.53327996      -1.06069077      -1.45866933       0.00000000
Si       0.44742114       2.43470340      -2.43163325       0.00000000
Si       2.21009688       0.83240271      -2.76400047       0.00000000
Si       0.22661019      -2.29017852      -2.99720602       0.00000000
Si      -2.50375671       0.21292659      -2.82720250       0.00000000
Si       2.70477531      -2.68200189      -0.02140149       0.00000000
Si      -2.70404226      -2.70516627      -0.03795898       0.00000000
