10
Lattice="16.28999089631971 0.0 0.0 0.0 16.28999089631971 0.0 0.0 0.0 34.33025523377368" Properties=species:S:1:pos:R:3:initial_magmoms:R:1 pbc="T T T"
Si      -1.35741312       1.35785295      -1.35673245       0.00000000
Si       1.35773892      -1.35752715      -1.35707575       0.00000000
Si       1.35637056       1.35751086       1.35872360       0.00000000
Si      -1.35666378      -1.35847197       1.35882659       0.00000000
Si       0.00013032      -2.71410948      -2.71394551       0.00000000
Si      -2.71414206       0.00302994      -2.71394551       0.00000000
Si       0.00017919      -2.71575477       2.71291561       0.00000000
Si      -2.71507059      -2.71464705       0.00024031       0.00000000
Si       2.71513575      -2.71508688       0.00037763       0.00000000
Si       2.71502172       2.71549413       0.00034330       0.00000000
