10
Lattice="16.28999089631971 0.0 0.0 0.0 16.28999089631971 0.0 0.0 0.0 34.33025523377368" Properties=species:S:1:pos:R:3:initial_magmoms:R:1 pbc="T T T"
Si       1.30305339       0.64244502       1.89688498       0.00000000
Si       1.45904643      -0.83603538      -1.69927992       0.00000000
Si      -1.72470375      -1.70961921       0.33938909       0.00000000
Si      -1.43708751       1.66552218      -1.22521316       0.00000000
Si      -1.48458915      -2.43525726      -2.01820817       0.00000000
Si      -3.00961008       1.72768482       0.69535971       0.00000000
Si      -0.02205666      -1.15585695      -3.59163331       0.00000000
Si       3.42137241       1.32910110       0.88572108       0.00000000
Si       0.35176626       2.61275310       2.74879074       0.00000000
Si       3.54415014       0.27541503      -1.43658466       0.00000000
