10
Lattice="16.28999089631971 0.0 0.0 0.0 16.28999089631971 0.0 0.0 0.0 34.33025523377368" Properties=species:S:1:pos:R:3:initial_magmoms:R:1 pbc="T T T"
Si       0.99748557       1.71369171       1.12300438       0.00000000
Si      -1.71471798      -0.97940367       1.14328328       0.00000000
Si      -0.86796378       1.33920090      -1.67375403       0.00000000
Si       1.76267574      -1.60230069      -0.33236722       0.00000000
Si       1.33447680       1.49675778      -2.60036247       0.00000000
Si       2.28766986       0.27424215       2.42182509       0.00000000
Si      -0.44742114      -2.43470340       2.43163325       0.00000000
Si       2.51546922       2.44866393      -0.51057567       0.00000000
Si       1.74110778      -1.06844481      -2.92989877       0.00000000
Si      -2.95117785      -2.22177681      -0.39556925       0.00000000
