10
Lattice="16.28999089631971 0.0 0.0 0.0 16.28999089631971 0.0 0.0 0.0 34.33025523377368" Properties=species:S:1:pos:R:3:initial_magmoms:R:1 pbc="T T T"
Si       1.54364040      -0.99225648       1.41900756       0.00000000
Si      -1.15963623      -1.54484586      -1.31934678       0.00000000
Si       1.59187509       1.13777505      -1.33726718       0.00000000
Si      -1.29091734       1.55629514       1.61723057       0.00000000
Si      -0.42150375      -0.61206417       2.72558348       0.00000000
Si       2.40183018       1.20495501       1.69310047       0.00000000
Si       0.66021741       2.94292601       1.65705369       0.00000000
Si      -2.36726280      -0.11262906      -2.73275850       0.00000000
Si       0.33699123       2.60619542      -2.70896762       0.00000000
Si       2.85909048      -2.46707163       0.07037706       0.00000000
