10
Lattice="16.28999089631971 0.0 0.0 0.0 16.28999089631971 0.0 0.0 0.0 34.33025523377368" Properties=species:S:1:pos:R:3:initial_magmoms:R:1 pbc="T T T"
Si      -2.29793256      -0.40689162      -0.15761029       0.00000000
Si       1.05997401      -1.88004519      -0.90793277       0.00000000
Si       0.08974161       0.01744659       2.35721963       0.00000000
Si       0.77400306       1.47776364      -1.69334079       0.00000000
Si      -1.88152758      -1.38256488       2.51647778       0.00000000
Si       3.04963461       1.21334436      -1.02036442       0.00000000
Si       3.29722632      -1.19557197      -0.64334934       0.00000000
Si       0.38789748      -1.72788030      -3.15993011       0.00000000
Si      -1.11816189       2.98260126      -1.75681746       0.00000000
Si       2.33109900      -0.29810700       2.95549332       0.00000000
