10
Lattice="16.28999089631971 0.0 0.0 0.0 16.28999089631971 0.0 0.0 0.0 34.33025523377368" Properties=species:S:1:pos:R:3:initial_magmoms:R:1 pbc="T T T"
Si       1.57385835      -1.68120945       0.43832894       0.00000000
Si       1.22394915       1.94373909       0.56600323       0.00000000
Si      -0.50808510       0.21509316      -2.33566022       0.00000000
Si      -1.69055991      -0.07237647       1.79725853       0.00000000
Si       0.45985041       2.33197866      -2.72221911       0.00000000
Si       0.19103283       3.58153569      -0.72996462       0.00000000
Si       0.77476869      -3.66642288      -0.40327773       0.00000000
Si       3.19948632       2.05099245      -0.67029861       0.00000000
Si      -2.09719089       2.49282612       2.12679483       0.00000000
Si       3.48680934      -1.51739721      -0.93220427       0.00000000
