10
Lattice="16.28999089631971 0.0 0.0 0.0 16.28999089631971 0.0 0.0 0.0 34.33025523377368" Properties=species:S:1:pos:R:3:initial_magmoms:R:1 pbc="T T T"
Si       1.36241415      -1.30052227      -1.36518799       0.00000000
Si       1.36195803       1.33989681       1.36454258       0.00000000
Si      -1.35172791      -1.37698753       1.36698003       0.00000000
Si      -1.56284631       1.19603330      -1.43470680       0.00000000
Si      -0.44530344      -1.96293883      -2.66170857       0.00000000
Si       2.70743058       2.69719753      -0.02828471       0.00000000
Si      -2.72725551       2.69286439      -0.00785820       0.00000000
Si       0.00762372       2.69871250       2.72498270       0.00000000
Si      -2.68354944      -2.74332757       0.00433935       0.00000000
Si      -2.70951570      -0.01650082       2.72487971       0.00000000
