10
Lattice="16.28999089631971 0.0 0.0 0.0 16.28999089631971 0.0 0.0 0.0 34.33025523377368" Properties=species:S:1:pos:R:3:initial_magmoms:R:1 pbc="T T T"
Si      -0.60227388      -1.94099423       1.14417998       0.00000000
Si      -1.27158111       2.00031426      -0.03776056       0.00000000
Si       2.02258269       0.78685587       1.06825858       0.00000000
Si      -1.03026105      -0.27666936      -2.61583100       0.00000000
Si      -1.76668308      -0.44416314       2.57102858       0.00000000
Si      -3.09330810       0.98502372       1.14303335       0.00000000
Si       2.86267428       1.59410682      -1.14361151       0.00000000
Si       0.96418881       2.30154894       2.56841605       0.00000000
Si      -1.86843042       1.95032025      -2.40837315       0.00000000
Si      -1.49517765      -3.70593332      -0.34917463       0.00000000
