10
Lattice="16.28999089631971 0.0 0.0 0.0 16.28999089631971 0.0 0.0 0.0 34.33025523377368" Properties=species:S:1:pos:R:3:initial_magmoms:R:1 pbc="T T T"
Si      -1.61642412      -0.73818528       1.60167895       0.00000000
Si       0.42501231       2.01460385      -1.24807713       0.00000000
Si       1.71934501      -1.72982274      -0.18593277       0.00000000
Si       1.92915044       0.40457681       1.66117332       0.00000000
Si      -2.42637921      -0.80536524      -1.42868870       0.00000000
Si       1.76189286       0.67343349      -2.80972698       0.00000000
Si      -0.95804748      -2.07070728      -2.80801047       0.00000000
Si       3.29017994      -0.54597776      -1.45697685       0.00000000
Si       0.48857882      -3.39488880      -1.36696287       0.00000000
Si       0.84700085       0.96999131       3.60018155       0.00000000
