10
Lattice="16.28999089631971 0.0 0.0 0.0 16.28999089631971 0.0 0.0 0.0 34.33025523377368" Properties=species:S:1:pos:R:3:initial_magmoms:R:1 pbc="T T T"
Si       1.35047358       1.33592661      -1.39277923       0.00000000
Si      -1.36182771      -1.37865528      -1.39525101       0.00000000
Si       1.54645857      -1.20801753       1.41372070       0.00000000
Si      -1.34399016       1.51109298       1.57105635       0.00000000
Si       0.22374315      -2.58640565       2.80454311       0.00000000
Si      -2.71795718       2.69167815      -0.01596358       0.00000000
Si       2.70257616       2.71327869      -0.01002444       0.00000000
Si      -2.71224427      -2.71733327      -0.02059816       0.00000000
Si       0.00029322       2.69452890      -2.75459256       0.00000000
Si       2.72546361      -2.73666787      -0.01452171       0.00000000
