10
Lattice="16.28999089631971 0.0 0.0 0.0 16.28999089631971 0.0 0.0 0.0 34.33025523377368" Properties=species:S:1:pos:R:3:initial_magmoms:R:1 pbc="T T T"
Si      -0.06815736       1.18693827      -1.98617803       0.00000000
Si       0.16946487       1.79752005       1.47335239       0.00000000
Si       2.18679796      -0.83873952       0.15809091       0.00000000
Si      -1.98970947      -1.24188444       0.43084494       0.00000000
Si       2.00211986       2.41267932      -1.62392497       0.00000000
Si      -2.22716880       2.25935784      -1.93801265       0.00000000
Si       2.34513025      -2.10478040       2.11749133       0.00000000
Si      -3.66474501       0.20773008       1.26143160       0.00000000
Si      -1.47794283      -3.12190194       1.79753317       0.00000000
Si       2.92284044      -1.75785390      -1.91641891       0.00000000
