10
Lattice="16.28999089631971 0.0 0.0 0.0 16.28999089631971 0.0 0.0 0.0 34.33025523377368" Properties=species:S:1:pos:R:3:initial_magmoms:R:1 pbc="T T T"
Si       1.22673867       1.98920611      -0.26873739       0.00000000
Si       0.36494487      -0.72423222      -2.23043793       0.00000000
Si      -2.30884686       0.29129289       0.72776749       0.00000000
Si       0.91699116      -1.25018566       1.88837107       0.00000000
Si       1.70025639       2.43599194       1.98525111       0.00000000
Si      -0.29470239      -3.23317960       1.56065428       0.00000000
Si      -2.13640092       1.79322112       2.54737502       0.00000000
Si      -0.78529203      -3.71852386      -0.71029338       0.00000000
Si       0.06566499       3.52378927      -1.62649974       0.00000000
Si       0.76230810      -2.99637187      -2.37761182       0.00000000
