10
Lattice="16.28999089631971 0.0 0.0 0.0 16.28999089631971 0.0 0.0 0.0 34.33025523377368" Properties=species:S:1:pos:R:3:initial_magmoms:R:1 pbc="T T T"
Si      -1.34377839      -1.35177678      -1.36658523       0.00000000
Si       1.37060802       1.36314720      -1.35886092       0.00000000
Si       1.39114971      -1.35791811       1.34931711       0.00000000
Si      -1.31458671       1.44412479       1.38749237       0.00000000
Si       2.23254450       0.59688189       2.49371680       0.00000000
Si       0.56146743       2.34323505       2.63759498       0.00000000
Si      -2.69369811      -2.69692353       0.00319272       0.00000000
Si      -2.70062136       0.00550602      -2.72067425       0.00000000
Si       0.01330893      -2.70567126      -2.72132652       0.00000000
Si      -2.70194085       2.73302217       0.00013732       0.00000000
