10
Lattice="16.28999089631971 0.0 0.0 0.0 16.28999089631971 0.0 0.0 0.0 34.33025523377368" Properties=species:S:1:pos:R:3:initial_magmoms:R:1 pbc="T T T"
Si      -0.16946487      -1.79752005      -1.47335239       0.00000000
Si      -0.00149868      -0.62714871       2.27256118       0.00000000
Si      -1.81110591       1.56994875      -0.05846446       0.00000000
Si       1.44015722       1.95190038      -0.99200761       0.00000000
Si       2.15284309       1.97148096       1.40129314       0.00000000
Si       0.28375551       1.65234357       2.81357197       0.00000000
Si      -0.71198703       3.10274001      -1.50050763       0.00000000
Si      -0.23762223      -0.61058178      -3.45953041       0.00000000
Si       2.01733309      -2.63625957      -1.31526147       0.00000000
Si      -2.01911292       2.04441129       2.23146784       0.00000000
