10
Lattice="16.28999089631971 0.0 0.0 0.0 16.28999089631971 0.0 0.0 0.0 34.33025523377368" Properties=species:S:1:pos:R:3:initial_magmoms:R:1 pbc="T T T"
Si      -1.35340112      -1.35796698      -1.37829186       0.00000000
Si       1.36031600       1.35843939      -1.37695298       0.00000000
Si      -1.25800975       1.48773312       1.39497637       0.00000000
Si       1.37396702      -1.18058517       1.58701993       0.00000000
Si       0.49274318       2.35999746       2.89387048       0.00000000
Si       2.26804367       0.68576013       2.95240360       0.00000000
Si       2.71795718      -2.69167815       0.01596358       0.00000000
Si      -2.69961531      -2.72888451      -0.00724369       0.00000000
Si       2.72243693       2.72117934      -0.00477191       0.00000000
Si      -2.70422538       2.74261698      -0.00755266       0.00000000
