10
Lattice="16.28999089631971 0.0 0.0 0.0 16.28999089631971 0.0 0.0 0.0 34.33025523377368" Properties=species:S:1:pos:R:3:initial_magmoms:R:1 pbc="T T T"
Si      -1.85935689      -0.93022416      -0.90903134       0.00000000
Si       2.14804827      -0.46975473      -0.73453055       0.00000000
Si      -0.29416482      -0.16394256       2.30774971       0.00000000
Si       0.13043403       2.20180527      -0.77562389       0.00000000
Si       2.43330246       1.80973755      -0.19351976       0.00000000
Si       0.33844104       1.72734273      -3.06555618       0.00000000
Si      -2.15948385      -2.90564730       0.36180676       0.00000000
Si       2.14954695       0.15739398      -3.00709173       0.00000000
Si       0.83504169       1.60261020       3.32914403       0.00000000
Si      -2.46539376       0.40891158       2.92033912       0.00000000
