10
Lattice="16.28999089631971 0.0 0.0 0.0 16.28999089631971 0.0 0.0 0.0 34.33025523377368" Properties=species:S:1:pos:R:3:initial_magmoms:R:1 pbc="T T T"
Si      -1.12920651      -1.76655276      -1.02139432       0.00000000
Si       1.97957709       0.30750633      -1.24721887       0.00000000
Si      -1.47207843       1.74324177      -0.60949969       0.00000000
Si       0.72176103       0.19187991       2.32687167       0.00000000
Si       2.50321004       1.82008170       1.54417574       0.00000000
Si      -3.30043545      -1.19369862      -0.40880491       0.00000000
Si      -0.83504169      -1.60261020      -3.32914403       0.00000000
Si      -0.67298877       3.72845520       0.23210699       0.00000000
Si      -3.66728625       1.08501174      -0.15232343       0.00000000
Si       2.94602111       2.33974899      -0.78231829       0.00000000
