10
Lattice="16.28999089631971 0.0 0.0 0.0 16.28999089631971 0.0 0.0 0.0 34.33025523377368" Properties=species:S:1:pos:R:3:initial_magmoms:R:1 pbc="T T T"
Si      -1.41029046       1.24051608      -1.42645723       0.00000000
Si      -0.84740580      -1.85399748       1.20530160       0.00000000
Si       1.11793383       1.60573788       1.36737483       0.00000000
Si       1.32905223      -1.44897921      -1.42422576       0.00000000
Si       2.76567647       2.62106100       0.02145642       0.00000000
Si      -0.03640815       2.59975368      -2.79427836       0.00000000
Si       0.82367127      -3.60035064       1.06142342       0.00000000
Si      -2.90079288       2.52796365      -0.02234901       0.00000000
Si      -2.72345994      -2.75310774      -0.04480101       0.00000000
Si       2.67578231      -0.12111615      -2.79867263       0.00000000
