10
Lattice="16.28999089631971 0.0 0.0 0.0 16.28999089631971 0.0 0.0 0.0 34.33025523377368" Properties=species:S:1:pos:R:3:initial_magmoms:R:1 pbc="T T T"
Si      -1.35647371      -1.35701076       1.35611450       0.00000000
Si      -1.35710902       1.35868374      -1.35748771       0.00000000
Si       1.35946092       1.35804843       1.35580553       0.00000000
Si       1.35710375      -1.35784806      -1.35841463       0.00000000
Si       2.71253112       0.00063531       2.71463212       0.00000000
Si       0.00074439       2.71578735      -2.71202302       0.00000000
Si      -2.71294201       0.00000000      -2.71566203       0.00000000
Si       0.00300053       2.71300176       2.71562770       0.00000000
Si      -2.71457101       2.71422351      -0.00082393       0.00000000
Si      -0.00428968      -2.71339991       2.71586801       0.00000000
