10
Lattice="16.28999089631971 0.0 0.0 0.0 16.28999089631971 0.0 0.0 0.0 34.33025523377368" Properties=species:S:1:pos:R:3:initial_magmoms:R:1 pbc="T T T"
Si       1.29875283       1.03700511       1.64456918       0.00000000
Si       1.28036142      -1.35760860      -1.49662831       0.00000000
Si       0.92318688       1.91185956      -1.35899824       0.00000000
Si      -1.37173203      -1.40375817       1.66363621       0.00000000
Si       3.06181043       0.27059319      -2.27932424       0.00000000
Si      -0.12883761       2.41852743       3.08764913       0.00000000
Si       2.58339274      -0.29958939       3.10498935       0.00000000
Si      -2.38084866      -3.27883491       0.49827376       0.00000000
Si       1.75340673      -3.68504235      -0.60757720       0.00000000
Si       2.83937862       2.97608526      -0.35171366       0.00000000
