10
Lattice="16.28999089631971 0.0 0.0 0.0 16.28999089631971 0.0 0.0 0.0 34.33025523377368" Properties=species:S:1:pos:R:3:initial_magmoms:R:1 pbc="T T T"
Si      -1.35733167      -1.35591444      -1.35717874       0.00000000
Si      -1.35733167       1.35744570       1.35662945       0.00000000
Si       1.35760860      -1.35767376       1.35704142       0.00000000
Si       1.35658233       1.35905841      -1.35889525       0.00000000
Si       0.00000000       2.71181259      -2.71576502       0.00000000
Si      -2.71433754       0.00161271       2.71343056       0.00000000
Si       2.71516833      -0.00076563       2.71322458       0.00000000
Si      -2.71562445      -0.00092853      -2.71319025       0.00000000
Si       2.71531494       2.71437012      -0.00048062       0.00000000
Si      -2.71495656       2.71476108       0.00017165       0.00000000
