10
Lattice="16.28999089631971 0.0 0.0 0.0 16.28999089631971 0.0 0.0 0.0 34.33025523377368" Properties=species:S:1:pos:R:3:initial_magmoms:R:1 pbc="T T T"
Si      -1.35650088       1.35692442       1.35796833       0.00000000
Si       1.35767376       1.35666156      -1.35741905       0.00000000
Si      -1.35707103      -1.35790182      -1.35789967       0.00000000
Si       1.35927018      -1.35550719       1.35968485       0.00000000
Si      -2.71407690      -2.71373481      -0.00109857       0.00000000
Si      -2.71332756       2.71499470      -0.00027464       0.00000000
Si      -2.71469592      -0.00058644      -2.71435748       0.00000000
Si      -0.00014661       2.71443269      -2.71504408       0.00000000
Si       0.00026064      -2.71534752      -2.71452913       0.00000000
Si       2.71557558      -0.00097740      -2.71500975       0.00000000
