10
Lattice="16.28999089631971 0.0 0.0 0.0 16.28999089631971 0.0 0.0 0.0 34.33025523377368" Properties=species:S:1:pos:R:3:initial_magmoms:R:1 pbc="T T T"
Si      -1.54364040       0.99225648      -1.41900756       0.00000000
Si       0.85818978       2.19721149       0.27409291       0.00000000
Si      -1.96514415       0.38019231       1.30657591       0.00000000
Si       1.31545008      -1.47481515      -1.34863050       0.00000000
Si       0.04823469       2.13003153      -2.75627474       0.00000000
Si       1.89856692       2.01637620       2.36020637       0.00000000
Si      -1.06217316      -0.36939204       3.50886302       0.00000000
Si      -2.83455774       2.54855162       0.19822300       0.00000000
Si       2.29231251      -1.83943422       2.46055376       0.00000000
Si      -2.70327663      -0.55258938      -2.73835434       0.00000000
