10
Lattice="16.28999089631971 0.0 0.0 0.0 16.28999089631971 0.0 0.0 0.0 34.33025523377368" Properties=species:S:1:pos:R:3:initial_magmoms:R:1 pbc="T T T"
Si       1.33695518      -1.91000250       0.34615216       0.00000000
Si       1.15338806       2.09820087       0.05987200       0.00000000
Si      -1.90335618      -0.41528097       1.46837450       0.00000000
Si       2.11673793       2.09139165       2.21042338       0.00000000
Si       2.09543224      -1.74863376       2.59602102       0.00000000
Si      -3.35448567       1.47004218       1.04830926       0.00000000
Si      -2.29231251       1.83943422      -2.46055376       0.00000000
Si      -0.39374559       3.85581042      -0.10034739       0.00000000
Si       0.24213456      -3.87926802      -0.35404812       0.00000000
Si      -0.97686243       0.36461907      -3.80918426       0.00000000
