10
Lattice="16.28999089631971 0.0 0.0 0.0 16.28999089631971 0.0 0.0 0.0 34.33025523377368" Properties=species:S:1:pos:R:3:initial_magmoms:R:1 pbc="T T T"
Si       1.41162039      -1.72193445       0.53472835       0.00000000
Si      -1.97553717      -0.10725336       1.23630184       0.00000000
Si       1.21169355       1.98299394       0.32771680       0.00000000
Si      -0.49058964      -0.48534426      -2.27094765       0.00000000
Si      -0.74539782       0.23105736       3.21334802       0.00000000
Si       1.31539862      -0.98909622       2.92672455       0.00000000
Si      -3.00845349       1.53054324      -0.05966602       0.00000000
Si      -2.73963591       0.28098621      -2.05192050       0.00000000
Si       3.24020222      -1.08603801      -0.78406914       0.00000000
Si       3.40476380       0.97782354       0.37011469       0.00000000
