10
Lattice="16.28999089631971 0.0 0.0 0.0 16.28999089631971 0.0 0.0 0.0 34.33025523377368" Properties=species:S:1:pos:R:3:initial_magmoms:R:1 pbc="T T T"
Si       1.51558902      -1.18112274      -1.35029552       0.00000000
Si       1.36130643       1.34073216       1.37944192       0.00000000
Si      -1.35153080      -1.37616291       1.37679849       0.00000000
Si      -1.20584281       1.44233289      -1.58940588       0.00000000
Si       0.21550041      -2.44416789      -2.76255516       0.00000000
Si      -2.70230004       2.68879482      -0.01410631       0.00000000
Si       2.71917567       2.71332756       0.01727499       0.00000000
Si       0.00951336       2.69874801       2.73775356       0.00000000
Si      -2.69600797      -2.74466952       0.00328541       0.00000000
Si      -2.70619019      -0.01653435       2.73840583       0.00000000
