10
Lattice="16.28999089631971 0.0 0.0 0.0 16.28999089631971 0.0 0.0 0.0 34.33025523377368" Properties=species:S:1:pos:R:3:initial_magmoms:R:1 pbc="T T T"
Si       1.35595608       1.35619137       1.35693843       0.00000000
Si      -1.35799280      -1.35933534       1.35721307       0.00000000
Si      -1.35895391       1.35602847      -1.35992516       0.00000000
Si       1.35465939      -1.35962856      -1.36160734       0.00000000
Si      -0.00165690       2.71394658       2.71463212       0.00000000
Si       2.71422116      -0.00146610       2.71456346       0.00000000
Si       2.71353698      -2.71524978      -0.00240312       0.00000000
Si      -2.71511270      -2.71529865      -0.00130455       0.00000000
Si      -2.71602494      -0.00120546       2.71459779       0.00000000
Si       2.71570355       2.71528236      -0.00065228       0.00000000
