10
Lattice="16.28999089631971 0.0 0.0 0.0 16.28999089631971 0.0 0.0 0.0 34.33025523377368" Properties=species:S:1:pos:R:3:initial_magmoms:R:1 pbc="T T T"
Si      -1.34673008      -1.32786306       1.37444687       0.00000000
Si       1.35970911      -1.35277047      -1.35553089       0.00000000
Si      -1.35603167       1.36026387      -1.35659512       0.00000000
Si       1.37388629       1.35044100       1.38914022       0.00000000
Si       0.09948555      -2.58274692       2.77697590       0.00000000
Si       0.00171137      -2.71186146      -2.71250364       0.00000000
Si      -2.71359140       0.00335574      -2.71277828       0.00000000
Si      -2.71404752      -2.71296918       0.00751833       0.00000000
Si       2.71665470       0.00309510      -2.71281261       0.00000000
Si       2.71781129      -2.71204065       0.00504655       0.00000000
