10
Lattice="16.28999089631971 0.0 0.0 0.0 16.28999089631971 0.0 0.0 0.0 34.33025523377368" Properties=species:S:1:pos:R:3:initial_magmoms:R:1 pbc="T T T"
Si       1.75991458      -1.32875901      -0.80442699       0.00000000
Si      -0.01274041       1.94598711      -1.42158233       0.00000000
Si      -1.91619174      -1.06422570      -1.00728458       0.00000000
Si       1.23417927       0.91132776       1.86401172       0.00000000
Si      -1.54062579      -1.93908015       1.99628284       0.00000000
Si       0.22243180      -2.70549207      -1.92761058       0.00000000
Si       2.80972363       2.33254881       0.47938795       0.00000000
Si      -2.07353685       3.16614069      -1.13495887       0.00000000
Si       0.08348136       1.21314888      -3.81357853       0.00000000
Si       2.65552250      -2.97517302       0.69086244       0.00000000
