10
Lattice="16.28999089631971 0.0 0.0 0.0 16.28999089631971 0.0 0.0 0.0 34.33025523377368" Properties=species:S:1:pos:R:3:initial_magmoms:R:1 pbc="T T T"
Si       1.34999384       1.36407573       1.39011520       0.00000000
Si      -1.36284406      -1.34930070       1.39258698       0.00000000
Si      -1.36338163       1.43941698      -1.33786453       0.00000000
Si       1.49645723      -1.24646193      -1.57529957       0.00000000
Si       2.70230004      -2.68879482       0.01410631       0.00000000
Si      -2.70593827      -2.71534752       0.00005150       0.00000000
Si       2.73206187       2.70775638       0.02750198       0.00000000
Si      -0.00389015      -2.70532917       2.75251214       0.00000000
Si       2.71181340       0.00995319       2.75185987       0.00000000
Si      -2.72579578       2.73993925       0.02732347       0.00000000
