10
Lattice="16.28999089631971 0.0 0.0 0.0 16.28999089631971 0.0 0.0 0.0 34.33025523377368" Properties=species:S:1:pos:R:3:initial_magmoms:R:1 pbc="T T T"
Si       1.35041657       1.33867799      -1.37465285       0.00000000
Si      -1.36640424      -1.37535723      -1.37341696       0.00000000
Si       1.52828707      -1.21941124       1.35275013       0.00000000
Si      -1.33688055       1.34117036       1.56164985       0.00000000
Si      -1.76189286      -0.67343349       2.80972698       0.00000000
Si      -0.04254785      -2.40325623       2.62379421       0.00000000
Si      -2.70532821       2.68012691      -0.00260910       0.00000000
Si       2.71224427       2.71733327       0.02059816       0.00000000
Si      -0.00265364       2.69609111      -2.73347944       0.00000000
Si       2.71079446      -0.01902672      -2.73361676       0.00000000
