10
Lattice="16.28999089631971 0.0 0.0 0.0 16.28999089631971 0.0 0.0 0.0 34.33025523377368" Properties=species:S:1:pos:R:3:initial_magmoms:R:1 pbc="T T T"
Si       1.35775195       1.35746400      -1.35810566       0.00000000
Si      -1.35775145      -1.35754344      -1.35844896       0.00000000
Si       1.35697003      -1.35858600       1.36033712       0.00000000
Si      -1.36172412       1.35909099       1.35824298       0.00000000
Si      -2.71390815       2.71548014      -0.00151053       0.00000000
Si      -2.71455975      -2.71578735      -0.00230013       0.00000000
Si      -2.71441314      -0.00065160      -2.71600533       0.00000000
Si      -0.00033069       2.71464283      -2.71603966       0.00000000
Si       2.71547458       2.71542150      -0.00195683       0.00000000
Si      -0.00013846      -2.71529865      -2.71614265       0.00000000
