10
Lattice="10.86 0.0 0.0 0.0 10.86 0.0 0.0 0.0 10.86" Properties=species:S:1:pos:R:3:initial_magmoms:R:1 pbc="T T T"
Si      -1.27092408       1.40677182      -1.28836524       0.00000000
Si      -1.27092408      -1.30822818       1.42663476       0.00000000
Si       1.44407592       1.40677182       1.42663476       0.00000000
Si      -2.62842408       0.04927182      -2.64586524       0.00000000
Si      -2.62842408      -2.66572818       0.06913476       0.00000000
Si       2.68146432       0.15020466      -2.62873902       0.00000000
Si      -2.62842408       2.76427182       0.06913476       0.00000000
Si       0.08024454       2.85269394      -2.53470228       0.00000000
Si      -2.62842408       0.04927182       2.78413476       0.00000000
Si       2.77222134      -2.66909478       0.05269272       0.00000000
