10
Lattice="16.28999089631971 0.0 0.0 0.0 16.28999089631971 0.0 0.0 0.0 34.3005442915855" Properties=species:S:1:pos:R:3:initial_magmoms:R:1 pbc="T T T"
Si       0.07924108       1.49441202      -1.85432276       0.00000000
Si      -1.58909180      -1.90739610      -0.08386488       0.00000000
Si      -0.90735530       2.03062248       1.32794631       0.00000000
Si       2.16623280      -1.18770390       0.82242461       0.00000000
Si      -1.67331110       0.21556557       2.73656897       0.00000000
Si      -3.18704306      -0.95575059       1.44599071       0.00000000
Si       2.27395857       2.70764465      -1.20988377       0.00000000
Si       1.08212352      -2.59276527       2.52292448       0.00000000
Si       0.71506747       0.35302059      -3.84224622       0.00000000
Si       2.42998419      -2.41443864      -1.97948552       0.00000000
