10
Lattice="16.28999089631971 0.0 0.0 0.0 16.28999089631971 0.0 0.0 0.0 34.3005442915855" Properties=species:S:1:pos:R:3:initial_magmoms:R:1 pbc="T T T"
Si       1.35601218       1.35760860       1.35689599       0.00000000
Si       1.35731538      -1.35738706      -1.35717039       0.00000000
Si      -1.35777150      -1.35824554       1.35600418       0.00000000
Si      -1.35785295       1.35798327      -1.35771920       0.00000000
Si      -0.00267156      -2.71212929       2.71619302       0.00000000
Si       0.00141723      -2.71438762      -2.71485530       0.00000000
Si      -2.71477737      -2.71471208      -0.00020580       0.00000000
Si      -2.71277370      -0.00114030       2.71691333       0.00000000
Si      -2.71480995       2.71502172       0.00030871       0.00000000
Si       2.71533123       2.71515204       0.00006860       0.00000000
