10
Lattice="16.28999089631971 0.0 0.0 0.0 16.28999089631971 0.0 0.0 0.0 34.3005442915855" Properties=species:S:1:pos:R:3:initial_magmoms:R:1 pbc="T T T"
Si      -0.72544420      -1.00543183       2.01817655       0.00000000
Si      -1.11175503       1.55830140      -1.48295056       0.00000000
Si       1.60876782      -1.23761320      -1.52280782       0.00000000
Si      -0.19067445       2.57015475       0.43084938       0.00000000
Si      -1.96121337      -2.02807731       0.13308619       0.00000000
Si       1.37938833      -2.62382120       2.18052112       0.00000000
Si      -2.30369012       0.20600334      -2.92690138       0.00000000
Si      -2.93243525       2.38454649      -0.02267267       0.00000000
Si       2.38094640      -3.00285692       0.05779645       0.00000000
Si       0.30828825      -2.61903194      -2.95979562       0.00000000
