10
Lattice="16.28999089631971 0.0 0.0 0.0 16.28999089631971 0.0 0.0 0.0 34.3005442915855" Properties=species:S:1:pos:R:3:initial_magmoms:R:1 pbc="T T T"
Si      -0.66523473       2.26812186       0.16457410       0.00000000
Si       0.52642764      -0.51057747       2.28993992       0.00000000
Si       1.53244917      -1.08079263      -1.56300808       0.00000000
Si       2.86444989       0.83460186      -0.94535783       0.00000000
Si      -2.12877720       1.66149855       1.98356728       0.00000000
Si      -2.03476761       2.12587758      -1.88804022       0.00000000
Si       1.36809936       3.49861959       0.44326618       0.00000000
Si       3.02446656       1.97368011       1.13136979       0.00000000
Si      -1.39672089       0.03370401       3.57559364       0.00000000
Si      -3.70756653      -1.01586069       0.23876622       0.00000000
