10
Lattice="16.28999089631971 0.0 0.0 0.0 16.28999089631971 0.0 0.0 0.0 34.3005442915855" Properties=species:S:1:pos:R:3:initial_magmoms:R:1 pbc="T T T"
Si       1.81074753       1.37021706       0.69225397       0.00000000
Si       0.36882189      -2.14598596      -0.96408594       0.00000000
Si      -1.31041647      -0.46928232       1.94010847       0.00000000
Si      -0.97241526       1.40823792      -1.76757664       0.00000000
Si      -3.39081237      -0.54874494       0.80685215       0.00000000
Si       0.80376489       3.49247826       0.42220564       0.00000000
Si       3.35015253       1.12831056      -1.06801664       0.00000000
Si      -1.76432103      -2.74588150      -1.79474268       0.00000000
Si      -1.32597342       1.50617340       3.20607367       0.00000000
Si       0.27134253       3.36551400      -1.89565494       0.00000000
