10
Lattice="16.28999089631971 0.0 0.0 0.0 16.28999089631971 0.0 0.0 0.0 34.3005442915855" Properties=species:S:1:pos:R:3:initial_magmoms:R:1 pbc="T T T"
Si      -0.93328668       0.51290694      -2.07175403       0.00000000
Si      -1.20629079      -0.79441443       1.85559188       0.00000000
Si       2.04020847      -1.24678773       0.11315756       0.00000000
Si       1.49636682       1.95018993       0.33065743       0.00000000
Si      -2.27120067      -1.80766872      -0.01341152       0.00000000
Si       2.90607084       0.02391372       1.94799760       0.00000000
Si       0.98968266       1.21200858      -3.32931559       0.00000000
Si       2.76047082       1.88061534      -1.84043103       0.00000000
Si       0.16324209      -0.65217015       3.90820620       0.00000000
Si      -3.05497936       0.46169118       2.53182749       0.00000000
