10
Lattice="16.28999089631971 0.0 0.0 0.0 16.28999089631971 0.0 0.0 0.0 34.3005442915855" Properties=species:S:1:pos:R:3:initial_magmoms:R:1 pbc="T T T"
Si      -0.86586237      -1.27070145      -1.83484004       0.00000000
Si       0.78685587      -2.10960387       0.85027667       0.00000000
Si      -0.70949466       0.55441386       2.23890068       0.00000000
Si       2.13654753       0.78737715      -0.80596034       0.00000000
Si      -1.40970402       1.92627621      -1.61734017       0.00000000
Si       0.94687254      -0.97052562       2.92700428       0.00000000
Si      -2.74282875      -0.67608387       1.96020860       0.00000000
Si      -2.90607084      -0.02391372      -1.94799760       0.00000000
Si       1.81196928       3.11125968      -1.17616632       0.00000000
Si       2.65890267      -2.97018828      -0.22586921       0.00000000
