10
Lattice="16.28999089631971 0.0 0.0 0.0 16.28999089631971 0.0 0.0 0.0 34.3005442915855" Properties=species:S:1:pos:R:3:initial_magmoms:R:1 pbc="T T T"
Si      -1.24375779      -1.95727608       0.12807830       0.00000000
Si       0.53242236       0.12696426       2.31786058       0.00000000
Si       2.11362750      -0.77486643      -0.78339057       0.00000000
Si      -0.80703918       1.67661567      -1.54177603       0.00000000
Si      -3.27520224      -0.78433092       0.52229468       0.00000000
Si       1.33211475       2.58211161      -2.02977014       0.00000000
Si       3.15898938       1.29614643      -1.08129096       0.00000000
Si       1.53940500      -1.99529694       2.58790891       0.00000000
Si       1.79064567       2.05938180       2.56715707       0.00000000
Si      -1.32146109      -2.89430946      -2.04126083       0.00000000
