10
Lattice="16.28999089631971 0.0 0.0 0.0 16.28999089631971 0.0 0.0 0.0 34.3005442915855" Properties=species:S:1:pos:R:3:initial_magmoms:R:1 pbc="T T T"
Si       1.25822331       1.93241754       0.24929650       0.00000000
Si       1.00698264      -2.12226120       0.27004834       0.00000000
Si      -0.53242236      -0.12696426      -2.31786058       0.00000000
Si      -1.81731240       0.08765649       1.58664116       0.00000000
Si      -0.71066754       3.29475024       0.11322616       0.00000000
Si      -1.77618015      -2.08424034      -2.18978227       0.00000000
Si       1.58120514      -0.90183069      -3.10125114       0.00000000
Si      -0.80376489      -3.49247826      -0.42220564       0.00000000
Si       1.71276318      -2.02727421       2.57027842       0.00000000
Si      -3.68302239       0.38638251       0.17983785       0.00000000
