10
Lattice="16.28999089631971 0.0 0.0 0.0 16.28999089631971 0.0 0.0 0.0 34.3005442915855" Properties=species:S:1:pos:R:3:initial_magmoms:R:1 pbc="T T T"
Si      -1.35596331       1.35723393      -1.36090916       0.00000000
Si       1.35806472      -1.36021500      -1.36118356       0.00000000
Si       1.35498591       1.36715454       1.37425208       0.00000000
Si      -1.36291914      -1.37751498       1.37325736       0.00000000
Si       2.71360449       2.71138905      -0.00061741       0.00000000
Si      -2.71300176      -2.71546155      -0.00336146       0.00000000
Si      -2.71583622       2.71376739      -0.00524799       0.00000000
Si       0.00131949       2.71331127      -2.71855976       0.00000000
Si      -2.71399545      -0.00117288      -2.71825105       0.00000000
Si       2.71573848      -0.00175932      -2.71845686       0.00000000
