10
Lattice="16.28999089631971 0.0 0.0 0.0 16.28999089631971 0.0 0.0 0.0 34.3005442915855" Properties=species:S:1:pos:R:3:initial_magmoms:R:1 pbc="T T T"
Si      -1.95009219       1.25507934       0.02284418       0.00000000
Si       0.30040389      -0.77478498      -2.18076122       0.00000000
Si       1.80636552       1.18442961       1.05700616       0.00000000
Si      -1.17819054      -2.29923576       1.07974744       0.00000000
Si       1.35277047       0.01418859       3.14687089       0.00000000
Si      -3.38282050      -0.38993373      -0.82822141       0.00000000
Si      -2.04208182      -1.38880395      -2.52410986       0.00000000
Si       2.32137387      -1.83052359       1.96521648       0.00000000
Si       1.11573468       1.05920838      -3.32540533       0.00000000
Si       2.26929474      -2.13711768      -2.04469089       0.00000000
