10
Lattice="16.28999089631971 0.0 0.0 0.0 16.28999089631971 0.0 0.0 0.0 34.3005442915855" Properties=species:S:1:pos:R:3:initial_magmoms:R:1 pbc="T T T"
Si       1.38650706      -1.31743746      -1.35603848       0.00000000
Si      -1.33073010       1.42662348      -1.32691730       0.00000000
Si       1.86181668       0.81140883       1.31690153       0.00000000
Si      -1.24437681      -0.80159832       2.15452129       0.00000000
Si       0.41891364       0.63384946       3.20765149       0.00000000
Si      -2.50857855      -2.52304407       0.02353019       0.00000000
Si       2.71783989      -2.64425796       0.03361455       0.00000000
Si       0.04223997      -2.66440869      -2.70967591       0.00000000
Si      -2.68050321       0.05712903      -2.70569705       0.00000000
Si       2.74856283       0.05488703      -2.70219839       0.00000000
