10
Lattice="16.28999089631971 0.0 0.0 0.0 16.28999089631971 0.0 0.0 0.0 34.3005442915855" Properties=species:S:1:pos:R:3:initial_magmoms:R:1 pbc="T T T"
Si      -0.22599117       2.28547071      -0.27467891       0.00000000
Si       1.71626553      -0.23459229       1.59271236       0.00000000
Si       0.62330427      -1.14515442      -1.97766759       0.00000000
Si      -1.97314254      -1.18210014       0.60681127       0.00000000
Si      -1.10154609       2.76573249       1.87504030       0.00000000
Si       2.51307459      -2.35126602       0.94820478       0.00000000
Si       2.77974189      -1.81514583      -1.34417048       0.00000000
Si      -1.38539934      -3.39939720       0.14457687       0.00000000
Si      -1.83267387       2.65124637      -1.91177621       0.00000000
Si      -0.98578935      -2.89847970      -2.16518877       0.00000000
