10
Lattice="16.28999089631971 0.0 0.0 0.0 16.28999089631971 0.0 0.0 0.0 34.3005442915855" Properties=species:S:1:pos:R:3:initial_magmoms:R:1 pbc="T T T"
Si      -2.03191686       0.93113640       0.61349988       0.00000000
Si      -0.02059056      -2.30304762       0.35634855       0.00000000
Si      -0.39902355       0.15447807      -2.31216668       0.00000000
Si       1.69666866       1.35563297       0.96971123       0.00000000
Si       2.36799585       2.30267036      -1.03982158       0.00000000
Si      -3.43839546      -0.81723672      -0.12656908       0.00000000
Si      -2.18810538      -2.79849168      -0.39709762       0.00000000
Si      -1.09561653       2.42477369      -2.41657760       0.00000000
Si      -1.89586278       1.32695082       2.92364283       0.00000000
Si       1.48814037      -0.62535681      -3.40786388       0.00000000
