10
Lattice="16.28999089631971 0.0 0.0 0.0 16.28999089631971 0.0 0.0 0.0 34.3005442915855" Properties=species:S:1:pos:R:3:initial_magmoms:R:1 pbc="T T T"
Si       1.35641943       1.35672894      -1.35713609       0.00000000
Si       1.35247725      -1.35793557       1.36255558       0.00000000
Si      -1.35772263       1.35664749       1.35970864       0.00000000
Si      -1.35840681      -1.35884534      -1.35696459       0.00000000
Si       2.71371852      -0.00132275      -2.71471810       0.00000000
Si      -0.00136836       2.71425609      -2.71447799       0.00000000
Si       2.71477737       2.71415835      -0.00024010       0.00000000
Si       2.71513575      -2.71540358      -0.00003430       0.00000000
Si      -0.00141723      -2.71592486      -2.71461519       0.00000000
Si      -2.71660185      -0.00095134      -2.71430649       0.00000000
