10
Lattice="16.28999089631971 0.0 0.0 0.0 16.28999089631971 0.0 0.0 0.0 34.3005442915855" Properties=species:S:1:pos:R:3:initial_magmoms:R:1 pbc="T T T"
Si       1.35428544      -1.35586557       1.35641578       0.00000000
Si       1.35648459       1.35715248      -1.35689599       0.00000000
Si      -1.35728280       1.35628911       1.35885112       0.00000000
Si      -1.35835794      -1.35742941      -1.35689599       0.00000000
Si       0.00298107      -2.69081967       2.71605582       0.00000000
Si       2.69540856       0.01410714       2.73166257       0.00000000
Si       2.71479366       2.71296918       0.00024010       0.00000000
Si       2.71402803       0.00004887      -2.71430649       0.00000000
Si       2.71314837      -2.71543223       0.00030871       0.00000000
Si      -2.71477737      -2.71415835       0.00024010       0.00000000
