10
Lattice="16.28999089631971 0.0 0.0 0.0 16.28999089631971 0.0 0.0 0.0 34.3005442915855" Properties=species:S:1:pos:R:3:initial_magmoms:R:1 pbc="T T T"
Si       0.67132719       0.94703739      -2.00953281       0.00000000
Si       1.44888147      -1.37495291       1.24775160       0.00000000
Si      -1.69666866      -1.35563297      -0.96971123       0.00000000
Si       0.07750782       2.06367780       1.33713887       0.00000000
Si       2.56257990       2.06366151      -1.39966879       0.00000000
Si      -0.45255249      -2.18283917       2.95276401       0.00000000
Si      -3.72858552      -0.42449657      -0.35621135       0.00000000
Si       2.78405874       0.06481726       2.61699579       0.00000000
Si      -0.96034437       2.47047168      -2.81923191       0.00000000
Si       1.48025601       3.57680703       0.09851122       0.00000000
