10
Lattice="16.28999089631971 0.0 0.0 0.0 16.28999089631971 0.0 0.0 0.0 34.3005442915855" Properties=species:S:1:pos:R:3:initial_magmoms:R:1 pbc="T T T"
Si      -1.48484979       0.89155170       1.64474632       0.00000000
Si       1.40274819       1.51312923      -1.23862765       0.00000000
Si       1.27104354      -0.26065629       2.06434511       0.00000000
Si      -0.07750782      -2.06367780      -1.33713887       0.00000000
Si       0.59381937      -1.11664040      -3.34667168       0.00000000
Si       2.70655092      -1.99886054       1.27985692       0.00000000
Si       2.48507208      -0.00001629      -2.73680766       0.00000000
Si       1.37137365      -3.43863071      -0.08938727       0.00000000
Si       2.83853250       2.55262671       0.31175782       0.00000000
Si      -2.35418193       2.91617064       0.89774865       0.00000000
