10
Lattice="16.28999089631971 0.0 0.0 0.0 16.28999089631971 0.0 0.0 0.0 34.3005442915855" Properties=species:S:1:pos:R:3:initial_magmoms:R:1 pbc="T T T"
Si      -1.25398791      -1.38359115       1.46604038       0.00000000
Si       1.51009929       1.14500781       1.45022782       0.00000000
Si       0.96718617      -1.15375554      -1.91157040       0.00000000
Si      -1.77634305       2.37397428       0.88594925       0.00000000
Si      -2.01823326       1.95763446      -2.03669886       0.00000000
Si      -0.11385081       2.36372787       2.73550424       0.00000000
Si       2.77684227      -2.25771255      -0.56441577       0.00000000
Si       3.09469275      -0.40167882       2.17534173       0.00000000
Si       2.90488167       2.66269824      -0.00144062       0.00000000
Si      -3.20970015      -2.46796758      -0.10255868       0.00000000
