10
Lattice="16.28999089631971 0.0 0.0 0.0 16.28999089631971 0.0 0.0 0.0 34.3005442915855" Properties=species:S:1:pos:R:3:initial_magmoms:R:1 pbc="T T T"
Si      -2.15643762       0.66999141      -0.63349711       0.00000000
Si      -0.26666730      -0.53612019       2.29237526       0.00000000
Si       1.34890974       1.92259467      -0.31409026       0.00000000
Si       0.80676225      -1.68678063      -1.53203467       0.00000000
Si      -1.06347636       1.58055354       2.93688284       0.00000000
Si       3.07349946       1.37977929       1.20933497       0.00000000
Si      -2.77974189       1.81514583       1.34417048       0.00000000
Si       2.41370559       1.32844950      -2.30122480       0.00000000
Si      -1.36026387       1.45624455      -3.04156816       0.00000000
Si      -2.04828831      -2.04817428       2.64536236       0.00000000
