10
Lattice="16.28999089631971 0.0 0.0 0.0 16.28999089631971 0.0 0.0 0.0 34.3005442915855" Properties=species:S:1:pos:R:3:initial_magmoms:R:1 pbc="T T T"
Si      -1.94917995       0.10855656      -1.32736320       0.00000000
Si      -0.24821073      -2.11493070       1.10694778       0.00000000
Si       1.57286466      -0.94977216      -1.64018434       0.00000000
Si       0.65462994       1.82856879       1.53639084       0.00000000
Si       1.98366588      -2.28294576       1.80623337       0.00000000
Si       0.19956879      -2.75597478      -2.44631619       0.00000000
Si       3.12611616      -2.08790559      -0.29958112       0.00000000
Si      -3.77864469      -0.21999645       0.12488835       0.00000000
Si       0.39869775       3.77502831       0.09827111       0.00000000
Si      -1.71287721      -1.52679654      -3.05360766       0.00000000
