10
Lattice="16.28999089631971 0.0 0.0 0.0 16.28999089631971 0.0 0.0 0.0 34.3005442915855" Properties=species:S:1:pos:R:3:initial_magmoms:R:1 pbc="T T T"
Si       1.60171425       1.04422158       1.41730755       0.00000000
Si      -1.06893351      -1.58444685       1.44418548       0.00000000
Si       1.13283918      -0.45123300      -2.17276919       0.00000000
Si      -1.57949469       2.03804190      -0.02342728       0.00000000
Si       0.24508305       2.45689038       2.83048391       0.00000000
Si      -2.47059027      -0.25246242       2.83512477       0.00000000
Si      -2.22980778      -3.08153043       0.05964868       0.00000000
Si       2.71981098       2.68060095       0.18798325       0.00000000
Si       1.58573376      -2.84568381      -2.02157231       0.00000000
Si      -0.52152435      -0.66300300      -3.85665245       0.00000000
