10
Lattice="16.28999089631971 0.0 0.0 0.0 16.28999089631971 0.0 0.0 0.0 34.3005442915855" Properties=species:S:1:pos:R:3:initial_magmoms:R:1 pbc="T T T"
Si       1.56349791      -0.41466195       1.79028361       0.00000000
Si      -1.98798273      -1.15900092       0.77388931       0.00000000
Si      -0.45289458       2.39445081      -0.15119688       0.00000000
Si       0.26650440      -1.23287607      -2.11486984       0.00000000
Si      -2.10725811       2.18268081      -1.83508015       0.00000000
Si       3.55402188      -0.83758293       0.24771867       0.00000000
Si       0.07151310      -1.45409427       3.45910690       0.00000000
Si      -1.15652484      -2.93925357       2.06986750       0.00000000
Si      -3.32433288      -1.44459720      -1.09854415       0.00000000
Si      -2.00653704      -0.90083700      -3.08924595       0.00000000
