10
Lattice="16.28999089631971 0.0 0.0 0.0 16.28999089631971 0.0 0.0 0.0 34.3005442915855" Properties=species:S:1:pos:R:3:initial_magmoms:R:1 pbc="T T T"
Si       1.34426709       1.34697123       1.35363744       0.00000000
Si       1.35321030      -1.35107631      -1.35607278       0.00000000
Si      -1.36273995       1.35920502      -1.35298573       0.00000000
Si      -1.35698958      -1.36107837       1.37751063       0.00000000
Si      -2.55081852       0.14136462       2.73320610       0.00000000
Si      -0.04223997       2.66440869       2.70967591       0.00000000
Si       2.67559992       0.02015073       2.74329046       0.00000000
Si       2.70760977      -2.71329498       0.00569389       0.00000000
Si       2.71000440       0.00363267      -2.71272866       0.00000000
Si      -0.00467523      -2.71137276      -2.71224845       0.00000000
