10
Lattice="16.28999089631971 0.0 0.0 0.0 16.28999089631971 0.0 0.0 0.0 34.3005442915855" Properties=species:S:1:pos:R:3:initial_magmoms:R:1 pbc="T T T"
Si       0.41658417      -0.50152023       2.24473177       0.00000000
Si      -0.88369992       2.18333471      -0.19633643       0.00000000
Si      -1.80216270      -1.53557685      -0.15068238       0.00000000
Si       2.27098890       0.50585337      -0.70281855       0.00000000
Si       2.54580120       2.05508680       1.05906420       0.00000000
Si       2.33481312      -1.73635110      -1.87823025       0.00000000
Si      -2.79922473      -1.17685476       1.98298417       0.00000000
Si      -1.71574425       2.17366822      -2.36430354       0.00000000
Si       0.61022340      -1.19353572      -3.40165548       0.00000000
Si      -1.47057975       0.27831465       3.34042897       0.00000000
