10
Lattice="16.28999089631971 0.0 0.0 0.0 16.28999089631971 0.0 0.0 0.0 34.3005442915855" Properties=species:S:1:pos:R:3:initial_magmoms:R:1 pbc="T T T"
Si       0.12439044       0.95928552      -2.24274234       0.00000000
Si       0.72550773       1.91373291       1.38147033       0.00000000
Si      -1.94049738      -0.69138018       1.46242308       0.00000000
Si       1.57949469      -2.03804190       0.02342728       0.00000000
Si      -2.25313506       1.53132516      -1.62416598       0.00000000
Si       1.82457774       0.41884848       2.85391119       0.00000000
Si      -2.61720027      -0.88677873      -2.17990371       0.00000000
Si       3.18120894      -0.99382032       1.44073484       0.00000000
Si      -3.07079532      -2.05701975      -0.09003898       0.00000000
Si      -0.52084017      -0.91334772      -3.57182057       0.00000000
