10
Lattice="16.28999089631971 0.0 0.0 0.0 16.28999089631971 0.0 0.0 0.0 34.3005442915855" Properties=species:S:1:pos:R:3:initial_magmoms:R:1 pbc="T T T"
Si      -1.35630315      -1.35733167      -1.35833661       0.00000000
Si       1.35896067       1.35788553      -1.35782211       0.00000000
Si      -1.35794159       1.36129014       1.35572977       0.00000000
Si       1.36099692      -1.35827649       1.35878252       0.00000000
Si      -0.02022078       2.71542897       2.70634876       0.00000000
Si      -0.00831279      -2.71397753       2.71204265       0.00000000
Si      -2.71273202       2.71355562      -0.00099472       0.00000000
Si      -2.71349765       0.00063531      -2.71554131       0.00000000
Si      -2.71437731      -2.71484579      -0.00092612       0.00000000
Si       0.00133089      -2.71445157      -2.71550701       0.00000000
