10
Lattice="16.28999089631971 0.0 0.0 0.0 16.28999089631971 0.0 0.0 0.0 34.3005442915855" Properties=species:S:1:pos:R:3:initial_magmoms:R:1 pbc="T T T"
Si       1.27980756       1.25260489      -1.57583649       0.00000000
Si       1.62228430      -0.98147576       1.48415108       0.00000000
Si      -1.03016331       1.60402906       1.48699803       0.00000000
Si      -1.36700793      -1.29842393      -1.52122999       0.00000000
Si      -0.12909825      -0.13704614       3.39057640       0.00000000
Si       2.47174264       2.60490295      -0.13188567       0.00000000
Si       0.65106243       3.43114804       1.32839222       0.00000000
Si       2.68859675      -2.68308259       0.09120520       0.00000000
Si      -0.05841594       2.63336158      -2.91095162       0.00000000
Si      -2.83981941       2.70798607       0.13984340       0.00000000
