10
Lattice="16.28999089631971 0.0 0.0 0.0 16.28999089631971 0.0 0.0 0.0 34.3005442915855" Properties=species:S:1:pos:R:3:initial_magmoms:R:1 pbc="T T T"
Si      -1.28091528       1.10123658       1.63438755       0.00000000
Si       1.28471804      -1.81306790       0.81916606       0.00000000
Si       1.99987021       1.26928422       0.19815436       0.00000000
Si      -0.91416222      -0.35603424      -2.18899336       0.00000000
Si       2.07298951      -0.17781838      -2.21032831       0.00000000
Si       2.94251876      -0.39564175       1.63977274       0.00000000
Si       2.12706416      -2.63483324      -1.22343250       0.00000000
Si      -2.82452310       2.31114375       0.37353314       0.00000000
Si       1.41534266       3.24736263       1.36210968       0.00000000
Si      -1.49737680       3.24107469      -1.35281422       0.00000000
