10
Lattice="16.28999089631971 0.0 0.0 0.0 16.28999089631971 0.0 0.0 0.0 34.3005442915855" Properties=species:S:1:pos:R:3:initial_magmoms:R:1 pbc="T T T"
Si       1.86182712      -0.02637514       1.44693497       0.00000000
Si      -0.90956844      -1.39711252      -1.70418919       0.00000000
Si       0.94341484       1.90735375      -1.13387373       0.00000000
Si      -1.75296690      -0.31886209       1.65946126       0.00000000
Si      -2.07591615       0.50947790      -2.46789124       0.00000000
Si      -1.13531526       3.07357114       0.97050014       0.00000000
Si      -2.52488484       2.16659281      -0.80808697       0.00000000
Si       1.18649911       3.29651608       0.70748342       0.00000000
Si      -1.97763858      -2.67224485       1.43695351       0.00000000
Si       1.55143095      -2.04307618       2.60992987       0.00000000
