10
Lattice="16.28999089631971 0.0 0.0 0.0 16.28999089631971 0.0 0.0 0.0 34.3005442915855" Properties=species:S:1:pos:R:3:initial_magmoms:R:1 pbc="T T T"
Si      -1.55325150       1.13813343      -1.34060322       0.00000000
Si       2.02404294       1.18809486       0.30122755       0.00000000
Si       0.53976915      -2.08381680      -1.02208819       0.00000000
Si      -1.14245028      -0.19504017       2.10581449       0.00000000
Si       2.95103843      -0.21256821       2.02805512       0.00000000
Si      -0.60416352      -2.38254282       2.63826214       0.00000000
Si       1.71765085      -2.15959788       2.37524542       0.00000000
Si       2.00940638      -1.39403304      -2.70837249       0.00000000
Si      -3.37432689      -0.02702511       1.40652891       0.00000000
Si       1.19773742       3.33006696       0.98079031       0.00000000
