10
Lattice="16.28999089631971 0.0 0.0 0.0 16.28999089631971 0.0 0.0 0.0 34.3005442915855" Properties=species:S:1:pos:R:3:initial_magmoms:R:1 pbc="T T T"
Si       0.53828676      -2.18750265       0.53244765       0.00000000
Si      -2.23187661       0.16801506      -0.69928559       0.00000000
Si       0.44740485       1.40465412       1.84519881       0.00000000
Si       1.14245028       0.19504017      -2.10581449       0.00000000
Si      -0.85128282      -3.09448098      -1.24613947       0.00000000
Si       2.86010113      -1.96455771       0.26943093       0.00000000
Si      -1.98366588       2.28294576      -1.80623337       0.00000000
Si      -1.54465038       0.91790892       3.13568891       0.00000000
Si      -2.36367900      -1.55540178      -2.26219076       0.00000000
Si      -0.41080122       1.33317360      -3.44641771       0.00000000
