10
Lattice="16.28999089631971 0.0 0.0 0.0 16.28999089631971 0.0 0.0 0.0 34.3005442915855" Properties=species:S:1:pos:R:3:initial_magmoms:R:1 pbc="T T T"
Si      -1.35752715      -1.35760860       1.35651868       0.00000000
Si      -1.35752715       1.35751086      -1.35771920       0.00000000
Si       1.35837423       1.35716877       1.35771920       0.00000000
Si       1.35775521      -1.35785295      -1.35813081       0.00000000
Si      -2.71384884       0.00158013      -2.71509540       0.00000000
Si      -2.71502172       2.71469592      -0.00106332       0.00000000
Si       2.71511922       2.71472850      -0.00034301       0.00000000
Si       2.71479530      -2.71516833      -0.00078891       0.00000000
Si       0.00091224      -2.71404432      -2.71615872       0.00000000
Si      -2.71528236      -2.71538010      -0.00048021       0.00000000
