10
Lattice="16.28999089631971 0.0 0.0 0.0 16.28999089631971 0.0 0.0 0.0 34.3005442915855" Properties=species:S:1:pos:R:3:initial_magmoms:R:1 pbc="T T T"
Si      -0.57785517       0.81450000       2.16285633       0.00000000
Si       2.08923227      -1.15297362      -0.33497930       0.00000000
Si      -1.69101603      -1.72359603      -0.15260321       0.00000000
Si      -0.39175821       2.00876877      -1.33559534       0.00000000
Si      -2.71717200       1.76256171       1.61425312       0.00000000
Si       1.30291234      -2.64609873      -2.10073801       0.00000000
Si      -1.68174702       3.36422709       0.18182729       0.00000000
Si       0.68262823       2.80764666       2.46415248       0.00000000
Si       2.55641318      -2.23606314       1.81028084       0.00000000
Si       1.72979342       2.98076049      -1.76359777       0.00000000
