10
Lattice="16.28999089631971 0.0 0.0 0.0 16.28999089631971 0.0 0.0 0.0 34.3005442915855" Properties=species:S:1:pos:R:3:initial_magmoms:R:1 pbc="T T T"
Si       1.26048340       1.99314666       0.30129615       0.00000000
Si       0.57785517      -0.81450000      -2.16285633       0.00000000
Si      -2.13931683       0.94806171      -0.54860321       0.00000000
Si       0.66046064      -1.15626420       2.04009461       0.00000000
Si      -1.10389185       2.54972709      -1.98102904       0.00000000
Si      -1.11316086      -2.53809603      -2.31545954       0.00000000
Si       0.18609696       1.19426877      -3.49845167       0.00000000
Si       2.48626844       0.16425207       2.79779406       0.00000000
Si      -3.26469519       1.37660274       1.45715654       0.00000000
Si       3.47339357       1.61468109      -0.33127484       0.00000000
