10
Lattice="16.28999089631971 0.0 0.0 0.0 16.28999089631971 0.0 0.0 0.0 34.3005442915855" Properties=species:S:1:pos:R:3:initial_magmoms:R:1 pbc="T T T"
Si      -1.27048968      -1.45417572       1.46547240       0.00000000
Si       1.48730699       1.20948363       1.48831658       0.00000000
Si       1.09595929      -1.51226586      -1.63606828       0.00000000
Si      -1.18390833       1.89485280      -1.11847277       0.00000000
Si       2.57141627       2.61454500      -0.21218329       0.00000000
Si      -0.36191493      -3.51736938      -1.55045407       0.00000000
Si      -2.35243890      -3.09444840      -0.00788913       0.00000000
Si       0.40518347       3.80224890      -1.03460790       0.00000000
Si      -2.54369979      -0.10451664       3.04512997       0.00000000
Si      -2.78185959       2.84649831       0.41138282       0.00000000
