10
Lattice="16.28999089631971 0.0 0.0 0.0 16.28999089631971 0.0 0.0 0.0 34.3005442915855" Properties=species:S:1:pos:R:3:initial_magmoms:R:1 pbc="T T T"
Si      -1.25984091       1.34439741       1.46017499       0.00000000
Si       2.01944198       0.64032732      -1.15819283       0.00000000
Si       0.85856771      -1.91721897       1.21904203       0.00000000
Si      -1.38299836      -0.16547382      -2.04479379       0.00000000
Si       2.03499893      -1.33512840      -2.42415802       0.00000000
Si       1.03199105      -3.21666087      -0.85562756       0.00000000
Si      -2.00906592       3.04606710      -0.16158995       0.00000000
Si      -1.47557514       2.24718921      -2.50442134       0.00000000
Si      -0.04539697      -1.41459102      -3.55741434       0.00000000
Si       2.43965882      -0.49721967       2.91174537       0.00000000
