10
Lattice="16.28999089631971 0.0 0.0 0.0 16.28999089631971 0.0 0.0 0.0 34.3005442915855" Properties=species:S:1:pos:R:3:initial_magmoms:R:1 pbc="T T T"
Si       1.25984091      -1.34439741      -1.46017499       0.00000000
Si       1.33823816       1.18495089       1.54995469       0.00000000
Si      -0.74922501       1.70166969      -1.62176494       0.00000000
Si      -1.41721275      -1.48299273       1.42616739       0.00000000
Si      -2.73974898       2.12459067      -0.07920000       0.00000000
Si      -0.12315745      -1.50987123      -3.50496878       0.00000000
Si      -0.21922986       2.42737290       2.95529680       0.00000000
Si       3.25540174       2.09738637       0.24408281       0.00000000
Si       2.49228040      -0.32117364       2.97448110       0.00000000
Si       2.11840861      -3.26161638      -0.24113296       0.00000000
