10
Lattice="16.28999089631971 0.0 0.0 0.0 16.28999089631971 0.0 0.0 0.0 34.3005442915855" Properties=species:S:1:pos:R:3:initial_magmoms:R:1 pbc="T T T"
Si      -1.35704009       1.35731538      -1.35734190       0.00000000
Si       1.35741541       1.35847197       1.35682739       0.00000000
Si       1.35769071      -1.35798327      -1.35706749       0.00000000
Si      -1.35640478      -1.35940050       1.35737620       0.00000000
Si      -0.00161435      -2.71166598       2.71410068       0.00000000
Si       2.71478292       0.00019548      -2.71399778       0.00000000
Si      -2.71388306       0.00112401      -2.71536981       0.00000000
Si       0.00225575       2.71259451       2.71708483       0.00000000
Si      -2.71471385      -2.71521720       0.00024010       0.00000000
Si      -2.71479530       2.71516833       0.00078891       0.00000000
