10
Lattice="16.28999089631971 0.0 0.0 0.0 16.28999089631971 0.0 0.0 0.0 34.3005442915855" Properties=species:S:1:pos:R:3:initial_magmoms:R:1 pbc="T T T"
Si       1.35628902       1.35687555       1.35713609       0.00000000
Si      -1.35841571      -1.35842310       1.35737620       0.00000000
Si      -1.35786185       1.35835794      -1.36169807       0.00000000
Si       1.35598277      -1.36042677      -1.36197247       0.00000000
Si       2.71444985      -0.00118917       2.71437509       0.00000000
Si       2.71340729      -2.71554300       0.00072031       0.00000000
Si      -0.00105170       2.71415835       2.71516400       0.00000000
Si      -2.71525868      -2.71461447      -0.00065171       0.00000000
Si      -0.00137562      -2.71573848       2.71471810       0.00000000
Si       2.71515032       2.71554300      -0.00109762       0.00000000
