10
Lattice="16.28999089631971 0.0 0.0 0.0 16.28999089631971 0.0 0.0 0.0 34.3005442915855" Properties=species:S:1:pos:R:3:initial_magmoms:R:1 pbc="T T T"
Si       1.11962799       1.63525536      -1.34060322       0.00000000
Si      -1.68429545      -1.08989874      -1.32026299       0.00000000
Si      -0.66746972       1.18021050       1.99649860       0.00000000
Si       1.73343519      -1.82772171      -0.08084643       0.00000000
Si      -1.62611993      -0.66099933       2.97128631       0.00000000
Si       2.40977970       0.28810494      -2.73783667       0.00000000
Si      -0.34382163      -2.43095670      -2.73944880       0.00000000
Si      -3.08642462      -2.36349981       0.27131746       0.00000000
Si       2.73025287       2.98009260       0.06746921       0.00000000
Si      -0.33345630       3.00809511      -2.69084490       0.00000000
