10
Lattice="16.28999089631971 0.0 0.0 0.0 16.28999089631971 0.0 0.0 0.0 34.3005442915855" Properties=species:S:1:pos:R:3:initial_magmoms:R:1 pbc="T T T"
Si       1.35500220      -1.35710524      -1.36090916       0.00000000
Si      -1.36099692       1.35827649      -1.35878252       0.00000000
Si      -1.36930971      -1.35570104       1.35326013       0.00000000
Si       1.35860229       1.36262592       1.38636017       0.00000000
Si       2.71010214      -2.71098899      -0.00072031       0.00000000
Si      -2.71753757      -2.71136110      -0.00195513       0.00000000
Si       2.71277370       0.00114030      -2.71691333       0.00000000
Si      -0.00200367      -2.71357178      -2.71711913       0.00000000
Si       2.71384884       2.71731861      -0.00174933       0.00000000
Si      -0.00203625       2.71616202      -2.71660463       0.00000000
