10
Lattice="16.28999089631971 0.0 0.0 0.0 16.28999089631971 0.0 0.0 0.0 34.3005442915855" Properties=species:S:1:pos:R:3:initial_magmoms:R:1 pbc="T T T"
Si      -1.35514066      -1.35190710       1.39281554       0.00000000
Si       1.36156707       1.36209879       1.39267834       0.00000000
Si      -1.48575877       1.32659800      -1.41038772       0.00000000
Si       1.27247706      -1.35549090      -1.59631392       0.00000000
Si       2.71292031      -2.69534340       0.00093984       0.00000000
Si      -2.70551701      -2.71036278       0.00578307       0.00000000
Si       2.71800279       2.72107250       0.00885641       0.00000000
Si      -2.71514294       2.74436720       0.01866294       0.00000000
Si       0.00337203      -2.70774009       2.75338169       0.00000000
Si      -2.71269944       0.00721012       2.75461651       0.00000000
