10
Lattice="16.28999089631971 0.0 0.0 0.0 16.28999089631971 0.0 0.0 0.0 34.3005442915855" Properties=species:S:1:pos:R:3:initial_magmoms:R:1 pbc="T T T"
Si      -1.35674499      -1.35755973       1.35806221       0.00000000
Si       1.35734072      -1.35728280      -1.35802791       0.00000000
Si      -1.35757578       1.35778779      -1.35754770       0.00000000
Si       1.35842564       1.35933534       1.35771920       0.00000000
Si       0.00105170      -2.71415835      -2.71516400       0.00000000
Si      -2.71531470       0.00200367      -2.71444369       0.00000000
Si      -2.71511922      -2.71472850       0.00034301       0.00000000
Si       2.71499656       2.71528967      -0.00041161       0.00000000
Si      -2.71526583       2.71556173      -0.00068601       0.00000000
Si       2.71550155      -2.71534752      -0.00078891       0.00000000
