10
Lattice="16.28999089631971 0.0 0.0 0.0 16.28999089631971 0.0 0.0 0.0 34.3005442915855" Properties=species:S:1:pos:R:3:initial_magmoms:R:1 pbc="T T T"
Si       2.18799135      -0.75888594       0.35964141       0.00000000
Si      -1.12510143      -1.98314460      -0.55062695       0.00000000
Si      -0.95314419       0.33646995       2.12639483       0.00000000
Si       0.36724176       1.88271675      -1.49169720       0.00000000
Si      -0.50435469      -2.06511588      -2.75992624       0.00000000
Si       1.87085763      -2.83861395       1.38070058       0.00000000
Si      -3.33801159      -1.60467903       0.08194405       0.00000000
Si      -0.35541522      -3.54411756       1.05120937       0.00000000
Si      -0.94519467       2.66620126       2.44662489       0.00000000
Si       1.46878785      -0.88301574      -3.36673751       0.00000000
