10
Lattice="10.86 0.0 0.0 0.0 10.86 0.0 0.0 0.0 10.86" Properties=species:S:1:pos:R:3:initial_magmoms:R:1 pbc="T T T"
Si       1.29308934      -1.32585396      -1.35454608       0.00000000
Si       1.29308934       1.38914604       1.36045392       0.00000000
Si      -1.48422534       1.21263846      -1.37376828       0.00000000
Si      -1.42191066      -1.32585396       1.36045392       0.00000000
Si       0.08509896       3.01775508      -2.22636516       0.00000000
Si       2.67010476      -0.09044208      -2.64281358       0.00000000
Si       2.56457814       2.74749312      -0.00110772       0.00000000
Si       2.65058934      -2.68335396       0.00295392       0.00000000
Si       2.65058934       0.03164604       2.71795392       0.00000000
Si      -0.06441066      -2.68335396      -2.71204608       0.00000000
