10
Lattice="16.28999089631971 0.0 0.0 0.0 16.28999089631971 0.0 0.0 0.0 34.279985188174585" Properties=species:S:1:pos:R:3:initial_magmoms:R:1 pbc="T T T"
Si      -1.39167425      -1.22992758       1.42407506       0.00000000
Si       1.17436239      -1.72854819      -1.11187194       0.00000000
Si       1.37121075       1.52604720       1.41828174       0.00000000
Si      -1.08227502       0.52766568      -2.37437022       0.00000000
Si      -2.62614918      -2.25776142      -0.37752569       0.00000000
Si      -0.61921548      -3.23224551      -1.56460796       0.00000000
Si      -2.53022144       2.63943612       0.36842473       0.00000000
Si       0.50632578       2.25539937      -2.89566625       0.00000000
Si      -0.00392589      -2.59993287       2.78852550       0.00000000
Si       2.70681156       0.12839778       2.80249461       0.00000000
