10
Lattice="16.28999089631971 0.0 0.0 0.0 16.28999089631971 0.0 0.0 0.0 34.279985188174585" Properties=species:S:1:pos:R:3:initial_magmoms:R:1 pbc="T T T"
Si       0.49619340       1.41892416       1.86452372       0.00000000
Si       0.17847324      -2.06479727       1.24666092       0.00000000
Si       2.22140214       0.19852786      -0.96926712       0.00000000
Si       0.80345538      -1.04162237      -2.48639728       0.00000000
Si       0.05351265      -2.84898158      -1.05400729       0.00000000
Si      -2.82595662       0.16551455      -1.12033910       0.00000000
Si      -1.68635709       1.20073590       2.60294929       0.00000000
Si      -1.76448393       1.85464908      -2.36888542       0.00000000
Si      -0.41625837       3.30483375      -1.08825302       0.00000000
Si      -3.48648354       0.48156172       1.05664685       0.00000000
