10
Lattice="16.28999089631971 0.0 0.0 0.0 16.28999089631971 0.0 0.0 0.0 34.279985188174585" Properties=species:S:1:pos:R:3:initial_magmoms:R:1 pbc="T T T"
Si       0.80633871       2.13045507      -0.33604688       0.00000000
Si       1.24408359      -1.17465561      -1.62919149       0.00000000
Si       0.96617619      -0.81081846       2.01765250       0.00000000
Si      -2.31694299      -0.05559777      -0.68042381       0.00000000
Si       0.60574365      -3.22410198      -0.68145221       0.00000000
Si      -1.59088140       0.19026720      -3.10172335       0.00000000
Si       0.49026384      -3.10794304       1.76535166       0.00000000
Si       1.66364883       2.15651907      -2.45695075       0.00000000
Si      -0.55604286      -1.89382979      -3.17549392       0.00000000
Si       2.80909647       2.45702070       0.85652019       0.00000000
