10
Lattice="16.28999089631971 0.0 0.0 0.0 16.28999089631971 0.0 0.0 0.0 34.279985188174585" Properties=species:S:1:pos:R:3:initial_magmoms:R:1 pbc="T T T"
Si       1.43665745      -0.57487410       1.82318203       0.00000000
Si      -1.29783800       1.50666210       1.42008346       0.00000000
Si      -1.26117665      -1.52316387      -1.46327627       0.00000000
Si       1.39125722       1.30893408      -1.67430397       0.00000000
Si       3.41054933       0.69475221       0.73417485       0.00000000
Si      -2.70083054       2.69992089      -0.26138503       0.00000000
Si       2.76497663       2.68633503      -0.32075800       0.00000000
Si      -2.02214027      -3.33461024       0.10129741       0.00000000
Si       0.19590843       2.94417315       2.65591190       0.00000000
Si       2.47149599      -2.65897109       1.74941146       0.00000000
