10
Lattice="16.28999089631971 0.0 0.0 0.0 16.28999089631971 0.0 0.0 0.0 34.279985188174585" Properties=species:S:1:pos:R:3:initial_magmoms:R:1 pbc="T T T"
Si       1.54740339      -1.70979255      -0.12015142       0.00000000
Si       0.45815625       1.34789650       1.85653648       0.00000000
Si       0.21742263       1.65701554      -1.65726681       0.00000000
Si      -2.00041200      -1.22405666      -0.32967080       0.00000000
Si      -1.74109149       1.90234294       2.36316066       0.00000000
Si       2.05159518      -1.54606176      -2.40707335       0.00000000
Si      -1.75984128      -2.91236922       1.29948640       0.00000000
Si      -1.53743391       3.15730825      -1.21889411       0.00000000
Si       0.43714215      -3.65260311       0.74716697       0.00000000
Si       2.15484120       2.89977964      -1.06048621       0.00000000
