10
Lattice="16.28999089631971 0.0 0.0 0.0 16.28999089631971 0.0 0.0 0.0 34.279985188174585" Properties=species:S:1:pos:R:3:initial_magmoms:R:1 pbc="T T T"
Si      -0.93556728      -2.16733237      -0.03863356       0.00000000
Si      -1.59770039       1.44186048       1.07340978       0.00000000
Si       2.31694299       0.05559777       0.68042381       0.00000000
Si       0.72606159       0.24586497      -2.42129955       0.00000000
Si       1.76090013      -1.83823202      -2.49507012       0.00000000
Si       0.78087744      -3.42310634      -1.02768025       0.00000000
Si      -3.12042185       1.95276375      -0.73935113       0.00000000
Si      -0.65535484       3.58912683       0.97149532       0.00000000
Si       3.12328170       2.18605284       0.34437692       0.00000000
Si       3.56102658      -1.11905784      -0.94876768       0.00000000
