10
Lattice="16.28999089631971 0.0 0.0 0.0 16.28999089631971 0.0 0.0 0.0 34.279985188174585" Properties=species:S:1:pos:R:3:initial_magmoms:R:1 pbc="T T T"
Si      -0.19254780      -2.11250349       0.86025671       0.00000000
Si      -1.95553305       1.00048293       0.77092302       0.00000000
Si      -1.10499957      -0.22659390      -2.09252003       0.00000000
Si       1.73688867       0.95741217       1.35056361       0.00000000
Si      -3.23617140       0.30385737      -0.96285676       0.00000000
Si       1.72190187       2.24744985      -1.90298588       0.00000000
Si      -1.47031911       3.21211107       0.78278390       0.00000000
Si       0.29704815       1.07214264      -3.47863200       0.00000000
Si      -2.37509829      -2.33069175       1.59868228       0.00000000
Si       3.42093258       1.29217167      -0.50922946       0.00000000
