10
Lattice="16.28999089631971 0.0 0.0 0.0 16.28999089631971 0.0 0.0 0.0 34.279985188174585" Properties=species:S:1:pos:R:3:initial_magmoms:R:1 pbc="T T T"
Si      -1.34822556      -1.45018467      -1.28063240       0.00000000
Si       1.40204772       1.29873654      -1.38611198       0.00000000
Si       1.10499957       0.22659390       2.09252003       0.00000000
Si      -2.13117183       0.53045127       1.12966326       0.00000000
Si      -0.85053348       1.22707683       2.86344304       0.00000000
Si       0.41625837      -3.30483375       1.08825302       0.00000000
Si       0.91245177      -1.88590959       2.95277673       0.00000000
Si      -2.77674453       2.52203409       0.07473041       0.00000000
Si       2.82690144       2.47404375       0.18953414       0.00000000
Si      -0.02340873       2.58944211      -2.74065207       0.00000000
