10
Lattice="16.28999089631971 0.0 0.0 0.0 16.28999089631971 0.0 0.0 0.0 34.279985188174585" Properties=species:S:1:pos:R:3:initial_magmoms:R:1 pbc="T T T"
Si      -0.40434061      -0.97277853       2.09008614       0.00000000
Si       1.71644472      -1.25577396      -0.98904669       0.00000000
Si       0.93556728       2.16733237       0.03863356       0.00000000
Si      -2.03920568      -0.34545877      -1.18773359       0.00000000
Si      -1.00032932      -3.11286654       1.15801283       0.00000000
Si       2.69646741       0.32910035      -2.45643655       0.00000000
Si      -2.34521333      -2.71798065      -0.90358663       0.00000000
Si       1.66162887       2.41319734      -2.38266598       0.00000000
Si      -0.66213311       3.60919285       1.11204334       0.00000000
Si      -1.99106873       0.35522626       3.28752098       0.00000000
