10
Lattice="16.28999089631971 0.0 0.0 0.0 16.28999089631971 0.0 0.0 0.0 34.279985188174585" Properties=species:S:1:pos:R:3:initial_magmoms:R:1 pbc="T T T"
Si       1.28063835       0.69662556       1.73377978       0.00000000
Si      -0.64557270       1.99158282      -1.05493285       0.00000000
Si       2.13117183      -0.53045127      -1.12966326       0.00000000
Si      -1.97389188      -1.26962631       1.08900718       0.00000000
Si      -2.01929211       0.61418187      -2.40847883       0.00000000
Si       0.78294627      -1.98063594      -2.41029567       0.00000000
Si       3.23617140      -0.30385737       0.96285676       0.00000000
Si      -3.41054933      -0.69475221      -0.73417485       0.00000000
Si      -0.93905334      -3.35372330       1.01523661       0.00000000
Si       0.86107311      -2.63454912       2.56153904       0.00000000
