10
Lattice="16.28999089631971 0.0 0.0 0.0 16.28999089631971 0.0 0.0 0.0 34.279985188174585" Properties=species:S:1:pos:R:3:initial_magmoms:R:1 pbc="T T T"
Si      -0.30116952       1.98239526       1.13514806       0.00000000
Si      -1.00528848      -0.08187354      -2.09265715       0.00000000
Si       2.13055281      -0.03955212      -0.98962945       0.00000000
Si      -0.34505478      -1.99300005       1.20895291       0.00000000
Si      -2.34781254      -2.31956568       0.01638584       0.00000000
Si      -1.49050242      -2.29350168      -2.10451803       0.00000000
Si       2.20191930      -2.33657244      -1.52487743       0.00000000
Si       1.73506419      -3.03316542       0.71257845       0.00000000
Si      -0.12395061       3.55630248      -0.78089850       0.00000000
Si       3.54379176       0.24298164       0.81161338       0.00000000
