10
Lattice="16.28999089631971 0.0 0.0 0.0 16.28999089631971 0.0 0.0 0.0 34.279985188174585" Properties=species:S:1:pos:R:3:initial_magmoms:R:1 pbc="T T T"
Si      -1.89586278      -0.49619340      -1.25194004       0.00000000
Si       1.36443411      -1.71173691      -0.79968394       0.00000000
Si       0.92281221       2.05091100      -0.66023288       0.00000000
Si       0.30929823      -0.22185351       2.36857690       0.00000000
Si      -2.63551023       1.75669731      -1.16778263       0.00000000
Si       3.35235168      -0.59587191      -0.21843219       0.00000000
Si      -2.80502397      -1.95408324       0.34314284       0.00000000
Si      -0.75062691       2.85886242      -2.11984119       0.00000000
Si       3.01650075       1.41763725      -1.47486291       0.00000000
Si       1.94773014       1.47092184       2.76146003       0.00000000
