10
Lattice="16.28999089631971 0.0 0.0 0.0 16.28999089631971 0.0 0.0 0.0 34.279985188174585" Properties=species:S:1:pos:R:3:initial_magmoms:R:1 pbc="T T T"
Si      -1.35650088      -1.34488611       1.36321293       0.00000000
Si      -1.35511623       1.35602847      -1.35858513       0.00000000
Si       1.35957969      -1.35998694      -1.35755673       0.00000000
Si       1.35741312       1.36052451       1.37126873       0.00000000
Si       0.06895557      -2.63559168       2.71775302       0.00000000
Si      -2.71116099       2.71660185      -0.00123408       0.00000000
Si      -2.71200807      -0.00164529      -2.71590190       0.00000000
Si      -2.71236645      -2.71705797       0.00188540       0.00000000
Si       0.00291591       2.71353933      -2.71617614       0.00000000
Si       2.71914309       2.71264338       0.00253672       0.00000000
