10
Lattice="16.28999089631971 0.0 0.0 0.0 16.28999089631971 0.0 0.0 0.0 34.279985188174585" Properties=species:S:1:pos:R:3:initial_magmoms:R:1 pbc="T T T"
Si      -1.35132066       1.34294760      -1.42032342       0.00000000
Si       1.36088289      -1.35133695      -1.42159178       0.00000000
Si      -1.39245291      -1.41874497       1.39379070       0.00000000
Si       1.34853507       1.53637506       1.40925098       0.00000000
Si       2.65386906      -0.01124010       2.56572121       0.00000000
Si      -2.78736561       2.59584408      -0.01412336       0.00000000
Si       2.78633934      -2.64204252      -0.06705169       0.00000000
Si      -2.57973327       0.04896774       2.87509824       0.00000000
Si      -2.70961344      -0.00791694      -2.78336495       0.00000000
Si       0.00622278       2.71015101      -2.78603879       0.00000000
