10
Lattice="16.28999089631971 0.0 0.0 0.0 16.28999089631971 0.0 0.0 0.0 34.279985188174585" Properties=species:S:1:pos:R:3:initial_magmoms:R:1 pbc="T T T"
Si      -1.41012756       1.78680123      -0.08357465       0.00000000
Si      -1.48936212      -1.67184270       0.74315621       0.00000000
Si       1.31616684       0.58645629       1.97243717       0.00000000
Si       0.76439196      -1.01327058      -2.12443471       0.00000000
Si       0.43482897      -3.05171973       0.66067852       0.00000000
Si       2.06972595      -2.56088574      -0.96796448       0.00000000
Si      -2.34771480       1.74337209      -2.21561952       0.00000000
Si       3.58107957       0.80352054       0.21483279       0.00000000
Si      -0.53108658       3.62090862       1.27648452       0.00000000
Si      -2.27833569      -1.34255664       2.93957893       0.00000000
