10
Lattice="16.28999089631971 0.0 0.0 0.0 16.28999089631971 0.0 0.0 0.0 34.279985188174585" Properties=species:S:1:pos:R:3:initial_magmoms:R:1 pbc="T T T"
Si      -2.09368854       0.63327375       0.81463002       0.00000000
Si       0.11238471      -0.56480688      -2.27153021       0.00000000
Si       1.40458896       1.81561824       0.53548795       0.00000000
Si       0.33585093      -2.01350916       1.25643072       0.00000000
Si       3.26809980       0.39148128       0.57144767       0.00000000
Si      -1.65206664      -3.12937416       0.67517897       0.00000000
Si      -3.01650075      -1.41763725       1.47486291       0.00000000
Si      -1.47173634       1.86564483       2.78943251       0.00000000
Si       2.08670013      -1.91324421      -2.38760230       0.00000000
Si       0.73391337      -1.34991972       3.48325980       0.00000000
