10
Lattice="16.28999089631971 0.0 0.0 0.0 16.28999089631971 0.0 0.0 0.0 34.279985188174585" Properties=species:S:1:pos:R:3:initial_magmoms:R:1 pbc="T T T"
Si      -1.35723393       1.35762489      -1.35721393       0.00000000
Si      -1.35744570      -1.35817875       1.35656261       0.00000000
Si       1.35809730       1.35765747       1.35717965       0.00000000
Si       1.35801585      -1.35762489      -1.35752245       0.00000000
Si       0.00097740      -2.71178001       2.71449642       0.00000000
Si       2.71445157      -0.00110772      -2.71435930       0.00000000
Si      -0.00081450       2.71613094      -2.71374226       0.00000000
Si      -2.71484253      -2.71505430       0.00006856       0.00000000
Si       2.71505430      -2.71484253      -0.00044564       0.00000000
Si      -2.71208952      -0.00283446       2.71792442       0.00000000
