10
Lattice="16.28999089631971 0.0 0.0 0.0 16.28999089631971 0.0 0.0 0.0 34.279985188174585" Properties=species:S:1:pos:R:3:initial_magmoms:R:1 pbc="T T T"
Si       1.41012756      -1.78680123       0.08357465       0.00000000
Si      -0.93758724      -0.04342914      -2.13204487       0.00000000
Si      -1.56326985       1.26229581       1.37963305       0.00000000
Si       0.87904098       1.83410739       1.36005917       0.00000000
Si      -2.71940373       0.95219937      -0.68374897       0.00000000
Si      -0.07923456      -3.45864393       0.82673086       0.00000000
Si       2.72629440      -1.20034494       2.05601182       0.00000000
Si       0.78969033       1.05694407      -3.41716795       0.00000000
Si       1.88387334       0.79529409       3.15592004       0.00000000
Si       2.80500768       2.64313395       0.20386319       0.00000000
