10
Lattice="16.28999089631971 0.0 0.0 0.0 16.28999089631971 0.0 0.0 0.0 34.279985188174585" Properties=species:S:1:pos:R:3:initial_magmoms:R:1 pbc="T T T"
Si      -1.25447661      -1.55538386       1.29009368       0.00000000
Si       1.46212524       1.10229543       1.57043556       0.00000000
Si      -1.20032865       1.40743971      -1.55816332       0.00000000
Si       1.52049231      -1.29698862      -1.53176771       0.00000000
Si       0.31814370      -2.88242495       2.42722999       0.00000000
Si       2.74194909       2.61407259       0.00274240       0.00000000
Si      -2.49008940       2.84965857      -0.21500419       0.00000000
Si      -2.67242337      -2.79553409      -0.22703647       0.00000000
Si      -2.55347379       0.05080851      -2.93220873       0.00000000
Si       0.99031797      -0.97383249       3.68074691       0.00000000
