10
Lattice="16.28999089631971 0.0 0.0 0.0 16.28999089631971 0.0 0.0 0.0 34.279985188174585" Properties=species:S:1:pos:R:3:initial_magmoms:R:1 pbc="T T T"
Si      -1.41279912       1.28262573      -1.29231160       0.00000000
Si       1.34571690       1.35081567       1.34431437       0.00000000
Si      -1.36888128      -1.36427121       1.34462289       0.00000000
Si       1.34716671      -1.29565773      -1.43646245       0.00000000
Si      -0.44136126      -2.12327118      -2.78027088       0.00000000
Si      -2.33872272      -0.33282099      -2.71465637       0.00000000
Si      -0.01210347       2.57755041      -2.68734255       0.00000000
Si       2.70212004      -0.00330687       2.70231674       0.00000000
Si      -0.01141929       2.71137276       2.70341370       0.00000000
Si       2.70055620      -2.71484253      -0.03376580       0.00000000
