10
Lattice="16.28999089631971 0.0 0.0 0.0 16.28999089631971 0.0 0.0 0.0 34.279985188174585" Properties=species:S:1:pos:R:3:initial_magmoms:R:1 pbc="T T T"
Si       1.35485559      -1.35685926      -1.36101901       0.00000000
Si      -1.36192545       1.35687555      -1.35954497       0.00000000
Si      -1.36278882      -1.36094805       1.37260565       0.00000000
Si       1.34793234       1.35677781       1.39200814       0.00000000
Si      -2.65254957       0.08127081       2.71576478       0.00000000
Si       2.71238274      -2.71298547       0.00000000       0.00000000
Si       2.71384884       2.71217097       0.00226248       0.00000000
Si       2.71080261       0.00026064      -2.71765018       0.00000000
Si      -0.00333945      -2.71423980      -2.71775302       0.00000000
Si      -0.00317655       2.71467963      -2.71765018       0.00000000
