10
Lattice="16.28999089631971 0.0 0.0 0.0 16.28999089631971 0.0 0.0 0.0 34.279985188174585" Properties=species:S:1:pos:R:3:initial_magmoms:R:1 pbc="T T T"
Si       1.48600638       1.27200465       1.23006940       0.00000000
Si       0.45113526      -2.23480881       0.41046877       0.00000000
Si      -2.08011897       1.04016537       0.49637446       0.00000000
Si       0.46685511       0.69659298      -2.23745588       0.00000000
Si      -1.50192171      -2.56657095       1.71650266       0.00000000
Si       0.39548862       2.99361330      -1.70220790       0.00000000
Si      -1.73506419       3.03316542      -0.71257845       0.00000000
Si       0.50497371      -3.17300367      -1.76110094       0.00000000
Si       1.80872757       3.27614706       0.09903493       0.00000000
Si      -1.27003356      -0.26081919      -3.58801949       0.00000000
