10
Lattice="16.28999089631971 0.0 0.0 0.0 16.28999089631971 0.0 0.0 0.0 34.279985188174585" Properties=species:S:1:pos:R:3:initial_magmoms:R:1 pbc="T T T"
Si      -1.35399452       1.35508365       1.36115613       0.00000000
Si       1.36152309      -1.36138788       1.36071049       0.00000000
Si      -1.36528349      -1.34376210      -1.38365410       0.00000000
Si       1.34997348       1.36088289      -1.39576180       0.00000000
Si       0.07962878      -2.71473339      -2.66324782       0.00000000
Si      -2.71114700       2.71309950      -0.00212536       0.00000000
Si      -2.71178231      -2.71819501       0.00075416       0.00000000
Si      -2.71194521      -0.00200367       2.71806154       0.00000000
Si       0.00296478       2.71306692       2.71795870       0.00000000
Si       2.72133084       2.71231758      -0.00174828       0.00000000
