10
Lattice="16.28999089631971 0.0 0.0 0.0 16.28999089631971 0.0 0.0 0.0 34.279985188174585" Properties=species:S:1:pos:R:3:initial_magmoms:R:1 pbc="T T T"
Si      -0.05760144       2.13864894      -0.96892432       0.00000000
Si      -0.29028780       0.27034884       2.32336157       0.00000000
Si       1.89832257      -1.20246264      -0.73410629       0.00000000
Si      -1.93741857      -1.24276410      -0.59678060       0.00000000
Si       0.40540923       1.65856635      -3.18282984       0.00000000
Si      -3.69227511       0.25752861      -0.15840790       0.00000000
Si      -1.69668495      -1.55188314       2.91702269       0.00000000
Si       1.04360256      -2.62117503      -2.42448759       0.00000000
Si      -2.15484120      -2.89977964       1.06048621       0.00000000
Si       1.72644678       3.39441246      -0.03479420       0.00000000
