10
Lattice="16.28999089631971 0.0 0.0 0.0 16.28999089631971 0.0 0.0 0.0 34.279985188174585" Properties=species:S:1:pos:R:3:initial_magmoms:R:1 pbc="T T T"
Si      -0.24120603      -1.89472248       1.38107282       0.00000000
Si      -0.39806244      -0.66358944      -2.22682908       0.00000000
Si      -1.80268398       1.40320431       0.75306314       0.00000000
Si       2.13377823       0.86341887      -0.71278413       0.00000000
Si      -2.35652769      -2.46462813       0.51430291       0.00000000
Si      -3.44111589      -0.28957104       0.36018001       0.00000000
Si       2.01689748       2.86414038       0.49356350       0.00000000
Si       1.12010040      -2.43162459      -2.57857621       0.00000000
Si       1.61855811      -3.30594147       0.95744052       0.00000000
Si      -0.73391337       1.34991972      -3.48325980       0.00000000
