10
Lattice="16.28999089631971 0.0 0.0 0.0 16.28999089631971 0.0 0.0 0.0 34.279985188174585" Properties=species:S:1:pos:R:3:initial_magmoms:R:1 pbc="T T T"
Si       2.21335488       0.00104256      -0.74421889       0.00000000
Si      -0.22571424       2.21630337       0.75320026       0.00000000
Si      -1.44140436      -0.04843017      -1.86390668       0.00000000
Si      -0.35649036      -1.96346628       1.27357072       0.00000000
Si       2.09106585       1.68498873      -2.31832241       0.00000000
Si       1.08914940       3.30151059      -0.93413012       0.00000000
Si       2.40355692      -1.78784379      -2.18744136       0.00000000
Si      -3.56977431       0.51357483      -1.08359094       0.00000000
Si       0.87457752       2.42463618       2.78624447       0.00000000
Si      -1.14023484      -2.03082543      -2.99905474       0.00000000
