10
Lattice="16.28999089631971 0.0 0.0 0.0 16.28999089631971 0.0 0.0 0.0 34.279985188174585" Properties=species:S:1:pos:R:3:initial_magmoms:R:1 pbc="T T T"
Si      -1.11742884       1.21130811       1.65283993       0.00000000
Si       1.50521229      -1.42939863       1.22033387       0.00000000
Si      -1.10604213       0.36380457      -2.21414548       0.00000000
Si       1.97073162      -2.47588452      -1.02603481       0.00000000
Si       2.87148717      -0.47592864      -1.87398500       0.00000000
Si      -2.86993962       1.99083348       0.28623804       0.00000000
Si       2.36310885       1.82980683      -2.18370484       0.00000000
Si       0.37049976       1.77749964      -3.35450411       0.00000000
Si      -0.98916138      -1.63691694      -3.42049311       0.00000000
Si       0.24184134      -2.66190003       2.90372003       0.00000000
