10
Lattice="16.28999089631971 0.0 0.0 0.0 16.28999089631971 0.0 0.0 0.0 34.279985188174585" Properties=species:S:1:pos:R:3:initial_magmoms:R:1 pbc="T T T"
Si       1.34977311       1.35087992      -1.34963805       0.00000000
Si      -1.48067955       1.21821507       1.35532853       0.00000000
Si      -1.36422234      -1.36216980      -1.34939809       0.00000000
Si       1.37106414      -1.32895449       1.39351646       0.00000000
Si      -0.44427717      -2.28258738       2.72937395       0.00000000
Si      -2.23062228      -0.58914414       2.78771851       0.00000000
Si      -0.06273279       2.45836530       2.87245868       0.00000000
Si       2.70734913      -0.00508248      -2.71123982       0.00000000
Si      -0.00516393       2.71105740      -2.71014286       0.00000000
Si      -0.00816129      -2.72096757      -2.70839458       0.00000000
