10
Lattice="16.28999089631971 0.0 0.0 0.0 16.28999089631971 0.0 0.0 0.0 34.279985188174585" Properties=species:S:1:pos:R:3:initial_magmoms:R:1 pbc="T T T"
Si      -1.83449835       0.96980886       0.95942876       0.00000000
Si       0.02619432       1.52047602      -1.78818215       0.00000000
Si       1.84775841      -0.49319604       1.46694423       0.00000000
Si       2.75385708      -1.04353740      -1.46639575       0.00000000
Si      -1.40315544      -3.04222266      -0.61484616       0.00000000
Si       1.51008300       0.29859570      -3.07042571       0.00000000
Si       1.42097670      -3.01472514      -0.93306744       0.00000000
Si       0.69836859       3.42906848      -0.53466523       0.00000000
Si       1.67793516      -2.84879520       1.42447130       0.00000000
Si      -1.30407966       3.26823242       0.87513423       0.00000000
