10
Lattice="16.28999089631971 0.0 0.0 0.0 16.28999089631971 0.0 0.0 0.0 34.279985188174585" Properties=species:S:1:pos:R:3:initial_magmoms:R:1 pbc="T T T"
Si       1.15325055      -1.94426037      -0.50281910       0.00000000
Si      -2.09362338      -0.02166570      -1.02867437       0.00000000
Si      -0.50419179      -0.16373079       2.28692193       0.00000000
Si       1.14684858       1.82466638      -1.07790046       0.00000000
Si      -2.05159518       1.54606176       2.40707335       0.00000000
Si      -0.48303108      -3.09208635      -1.71396594       0.00000000
Si      -2.47927284       2.26583216      -1.34980945       0.00000000
Si      -1.85103270      -1.53829728      -2.78751283       0.00000000
Si       1.50864948       0.20701448       3.35820635       0.00000000
Si      -0.52621587       2.59759430      -2.65584334       0.00000000
