10
Lattice="16.28999089631971 0.0 0.0 0.0 16.28999089631971 0.0 0.0 0.0 34.279985188174585" Properties=species:S:1:pos:R:3:initial_magmoms:R:1 pbc="T T T"
Si      -2.29651533      -0.42350742      -0.07531317       0.00000000
Si       0.15149700       1.76983912      -1.52014679       0.00000000
Si       0.29983374      -1.56959037      -1.76384334       0.00000000
Si       0.21413205       0.61555023       3.08208091       0.00000000
Si      -2.01963420      -1.77907977      -1.94871541       0.00000000
Si      -1.70136018       3.07717190      -1.06662234       0.00000000
Si       2.27941083       2.62651882      -1.20034863       0.00000000
Si      -3.35904687       1.64620291      -0.21901495       0.00000000
Si       1.23282720      -0.82608219      -3.76507572       0.00000000
Si       2.03113494      -1.24789545       3.27648282       0.00000000
