10
Lattice="16.28999089631971 0.0 0.0 0.0 16.28999089631971 0.0 0.0 0.0 34.279985188174585" Properties=species:S:1:pos:R:3:initial_magmoms:R:1 pbc="T T T"
Si      -1.35617508      -1.35645404      -1.35731677       0.00000000
Si       1.35863614       1.35840844      -1.35707681       0.00000000
Si      -1.35523026       1.36021663       1.36029913       0.00000000
Si       1.36057236      -1.36056265       1.35789953       0.00000000
Si      -2.71446786      -2.71401730      -0.00253672       0.00000000
Si      -2.71358820       0.00090572      -2.71531914       0.00000000
Si       0.00127062      -2.71408246      -2.71501062       0.00000000
Si      -2.71275741       2.71634284      -0.00071988       0.00000000
Si       2.71599165      -2.71321909      -0.00078844       0.00000000
Si       2.71606169       0.00126410      -2.71490778       0.00000000
