10
Lattice="16.28999089631971 0.0 0.0 0.0 16.28999089631971 0.0 0.0 0.0 34.279985188174585" Properties=species:S:1:pos:R:3:initial_magmoms:R:1 pbc="T T T"
Si       1.93528458      -1.01272649      -0.95901740       0.00000000
Si      -0.19945476       2.39187699       0.10547957       0.00000000
Si      -0.05778063      -0.87877382       2.27787201       0.00000000
Si      -1.66635297      -0.03964986      -1.86298112       0.00000000
Si      -3.66880122      -0.20048592      -0.45318166       0.00000000
Si       1.62927693      -3.38524838      -0.67487045       0.00000000
Si      -2.04957522      -0.03521898       3.29633094       0.00000000
Si       1.78963569       3.45282840      -0.47200138       0.00000000
Si      -0.51696315      -3.96191438       0.13862834       0.00000000
Si       3.97449026      -0.66726772       0.22871619       0.00000000
