10
Lattice="16.28999089631971 0.0 0.0 0.0 16.28999089631971 0.0 0.0 0.0 34.279985188174585" Properties=species:S:1:pos:R:3:initial_magmoms:R:1 pbc="T T T"
Si       0.41344020       1.95776478       1.21718011       0.00000000
Si       1.85928751      -1.43826039      -0.21596403       0.00000000
Si      -0.44036757       0.39952854      -2.33446830       0.00000000
Si      -1.28583486      -1.67589891       1.31042173       0.00000000
Si      -2.11470264      -2.63030395      -0.76962038       0.00000000
Si       2.38663880       2.56038075      -0.32648276       0.00000000
Si      -2.25860850      -1.04225049      -2.49256768       0.00000000
Si      -1.71007533       3.04940655       1.17556419       0.00000000
Si       2.93080625       1.00315449      -2.17136404       0.00000000
Si       0.84506397       1.34159553       3.47342144       0.00000000
