10
Lattice="16.28999089631971 0.0 0.0 0.0 16.28999089631971 0.0 0.0 0.0 34.279985188174585" Properties=species:S:1:pos:R:3:initial_magmoms:R:1 pbc="T T T"
Si      -1.28184381       1.31587362       1.57772692       0.00000000
Si      -1.58324139      -1.29393099      -1.44648047       0.00000000
Si       1.64879628       1.21326291      -1.45686732       0.00000000
Si       1.42496775      -1.38759849       1.56906779       0.00000000
Si      -2.63523330       2.73505842       0.17503027       0.00000000
Si      -2.61047250      -2.90630542       0.02483244       0.00000000
Si       2.83404202       2.70203859      -0.05784751       0.00000000
Si      -2.63676456      -0.04636134       2.95241337       0.00000000
Si       0.07910424       2.66926311       2.95059653       0.00000000
Si       2.86988002      -2.75856978       0.28947407       0.00000000
