10
Lattice="16.28999089631971 0.0 0.0 0.0 16.28999089631971 0.0 0.0 0.0 34.279985188174585" Properties=species:S:1:pos:R:3:initial_magmoms:R:1 pbc="T T T"
Si       1.36094805       1.35338949       1.37286961       0.00000000
Si      -1.35492075      -1.36223496       1.37468645       0.00000000
Si      -1.35338949       1.41918480      -1.40269664       0.00000000
Si       1.28184381      -1.31587362      -1.57772692       0.00000000
Si       2.70681156      -2.70347211      -0.00865913       0.00000000
Si      -2.70055620       2.71484253       0.03376580       0.00000000
Si       2.71628814       2.71754667      -0.03397148       0.00000000
Si      -2.70418887      -2.73492810      -0.01945733       0.00000000
Si       0.00156384       2.71153566       2.73608254       0.00000000
Si      -2.71391400      -0.00371412       2.73611682       0.00000000
