10
Lattice="16.28999089631971 0.0 0.0 0.0 16.28999089631971 0.0 0.0 0.0 34.279985188174585" Properties=species:S:1:pos:R:3:initial_magmoms:R:1 pbc="T T T"
Si      -0.91957050       0.16838973       2.10204987       0.00000000
Si       2.03517486       1.05741648       0.47076730       0.00000000
Si      -1.21112892       0.19121202      -2.05710878       0.00000000
Si       0.96808212      -2.19019050       0.33114484       0.00000000
Si       2.08007010      -1.81555308      -1.75390214       0.00000000
Si      -1.02100833      -3.25114191       0.90862580       0.00000000
Si       0.67707756      -0.62229429      -3.43537064       0.00000000
Si       3.57381653      -0.37804203      -0.51807371       0.00000000
Si      -1.27633779      -2.02761630       2.98739954       0.00000000
Si      -2.84442948      -1.63914867      -1.98618345       0.00000000
