10
Lattice="16.28999089631971 0.0 0.0 0.0 16.28999089631971 0.0 0.0 0.0 34.279985188174585" Properties=species:S:1:pos:R:3:initial_magmoms:R:1 pbc="T T T"
Si      -2.23298433       0.62911980       0.35373536       0.00000000
Si       0.35676729       2.19600603      -0.88534967       0.00000000
Si       0.92572812      -0.66305187       2.11744159       0.00000000
Si       0.25532946      -1.22352561      -2.07877374       0.00000000
Si      -1.91026314       2.63326221      -0.77729910       0.00000000
Si       2.24441991      -0.16257420      -2.65625470       0.00000000
Si      -0.74007099      -2.23190919       2.80245892       0.00000000
Si       3.03599988      -1.50586389       1.38192982       0.00000000
Si       1.27633779       2.02761630      -2.98739954       0.00000000
Si      -3.71899071      -0.64288485      -0.87633403       0.00000000
