10
Lattice="16.28999089631971 0.0 0.0 0.0 16.28999089631971 0.0 0.0 0.0 34.279985188174585" Properties=species:S:1:pos:R:3:initial_magmoms:R:1 pbc="T T T"
Si      -1.81824093      -1.44177903      -0.15809938       0.00000000
Si       1.82451651      -0.48246093      -1.37603365       0.00000000
Si      -0.67144122       2.20343427      -0.39048353       0.00000000
Si       0.44036757      -0.39952854       2.33446830       0.00000000
Si      -2.39915862       2.02224060       1.26877152       0.00000000
Si       3.37117382       0.60362595       0.16310426       0.00000000
Si      -3.49676253      -0.03383433       0.82954183       0.00000000
Si       2.29965508      -1.83778893       2.11850427       0.00000000
Si      -1.20371697       2.12011092      -2.83454500       0.00000000
Si       1.75897206      -2.84056712      -1.76785410       0.00000000
