10
Lattice="16.28999089631971 0.0 0.0 0.0 16.28999089631971 0.0 0.0 0.0 34.279985188174585" Properties=species:S:1:pos:R:3:initial_magmoms:R:1 pbc="T T T"
Si      -1.99075203      -0.25098003       1.17991775       0.00000000
Si       1.73279988      -0.58327974       1.45477482       0.00000000
Si       0.16982325       2.35559916       0.04247293       0.00000000
Si      -0.25695846      -0.16592994      -2.35753874       0.00000000
Si       1.07592192       1.80525780      -2.89086705       0.00000000
Si      -1.67793516       2.84879520      -1.42447130       0.00000000
Si       3.50546139      -0.97081884      -0.06166973       0.00000000
Si       2.10874050       1.43096247       2.67089226       0.00000000
Si      -3.08109060      -0.19342746      -2.03931746       0.00000000
Si       2.31606333       2.93226516      -0.77102586       0.00000000
