10
Lattice="16.28999089631971 0.0 0.0 0.0 16.28999089631971 0.0 0.0 0.0 34.279985188174585" Properties=species:S:1:pos:R:3:initial_magmoms:R:1 pbc="T T T"
Si      -1.56913425       1.67602923       0.17705622       0.00000000
Si      -0.12652443      -1.00341513       2.15312707       0.00000000
Si      -0.53696727      -1.84306689      -1.40736558       0.00000000
Si       1.94916366       1.25229375      -0.68457169       0.00000000
Si       2.15614440      -1.28524842       2.35476206       0.00000000
Si      -0.69343272       2.82584259       2.06701570       0.00000000
Si      -1.80170658      -2.61488709       1.98344105       0.00000000
Si       1.58962707       1.75922226      -2.96045546       0.00000000
Si      -1.19905803      -3.66384906      -0.04147881       0.00000000
Si      -3.72635379       0.81692721       0.65313692       0.00000000
