10
Lattice="16.28999089631971 0.0 0.0 0.0 16.28999089631971 0.0 0.0 0.0 34.279985188174585" Properties=species:S:1:pos:R:3:initial_magmoms:R:1 pbc="T T T"
Si      -0.91724103      -0.48751083       2.10379815       0.00000000
Si       2.35902725      -0.10883349       0.26450451       0.00000000
Si      -0.53325315      -2.01839616      -1.25197432       0.00000000
Si      -0.58301910       2.34724143      -0.46661942       0.00000000
Si       1.30404123       3.19701906       0.73163813       0.00000000
Si      -3.17584953      -0.44484732       1.49961307       0.00000000
Si       3.05319302       2.02932579      -0.42472925       0.00000000
Si       3.14642069      -1.88898840      -1.01911025       0.00000000
Si       1.38126072      -3.41858682      -1.22146511       0.00000000
Si      -0.03572397      -2.53143342       2.99158170       0.00000000
