10
Lattice="16.28999089631971 0.0 0.0 0.0 16.28999089631971 0.0 0.0 0.0 34.279985188174585" Properties=species:S:1:pos:R:3:initial_magmoms:R:1 pbc="T T T"
Si       2.34507256       0.28605240      -0.08062657       0.00000000
Si      -0.12915364      -1.14201045       2.11384219       0.00000000
Si      -1.04964030       2.20929867      -0.14065086       0.00000000
Si      -1.23226749      -1.21251357      -1.73833902       0.00000000
Si       2.32666486       1.40196627       2.05789722       0.00000000
Si      -3.34253925      -0.36970155      -1.00282725       0.00000000
Si      -3.15738711       1.46056140       0.65533084       0.00000000
Si      -0.67480836       3.06331821      -2.32109909       0.00000000
Si      -0.19469808      -3.50011664       1.72202174       0.00000000
Si       1.41750367      -0.05592357       3.65298010       0.00000000
