10
Lattice="16.28999089631971 0.0 0.0 0.0 16.28999089631971 0.0 0.0 0.0 34.279985188174585" Properties=species:S:1:pos:R:3:initial_magmoms:R:1 pbc="T T T"
Si       1.46439769       1.76779080       0.43850982       0.00000000
Si      -0.37483194      -0.85401954       2.18044824       0.00000000
Si      -2.16756273       0.95431707      -0.29079728       0.00000000
Si       1.11602790      -1.29617901      -1.74457798       0.00000000
Si      -0.28194636       0.31506489      -3.31580198       0.00000000
Si       1.66140895       2.60653032      -1.73909318       0.00000000
Si       0.24578026       1.17773442       3.39128655       0.00000000
Si      -3.23669172      -0.57396186      -1.68451941       0.00000000
Si       0.55732977       3.11095017       2.09001758       0.00000000
Si       0.17368235      -3.44344536      -1.64266353       0.00000000
