10
Lattice="16.28999089631971 0.0 0.0 0.0 16.28999089631971 0.0 0.0 0.0 34.279985188174585" Properties=species:S:1:pos:R:3:initial_magmoms:R:1 pbc="T T T"
Si      -1.35766326      -1.35708732       1.35615125       0.00000000
Si       1.35703822       1.35790182       1.35735105       0.00000000
Si      -1.35728859       1.35731538      -1.35834517       0.00000000
Si       1.35736076      -1.35738054      -1.35820805       0.00000000
Si       2.71440410      -0.00029322      -2.71518202       0.00000000
Si       2.71499054       2.71484253      -0.00020568       0.00000000
Si       2.71510457      -2.71492398      -0.00006856       0.00000000
Si      -2.71510896       2.71510317       0.00000000       0.00000000
Si       0.00040146      -2.71536381      -2.71501062       0.00000000
Si      -0.00108826       2.71513575      -2.71552482       0.00000000
