10
Lattice="16.28999089631971 0.0 0.0 0.0 16.28999089631971 0.0 0.0 0.0 34.279985188174585" Properties=species:S:1:pos:R:3:initial_magmoms:R:1 pbc="T T T"
Si       1.43604495      -1.25289648      -1.40620006       0.00000000
Si      -1.26898937      -1.17577962       1.63453917       0.00000000
Si       1.02379392       1.69717365       1.33218953       0.00000000
Si      -1.28267297       1.46782674      -1.39245378       0.00000000
Si      -2.54860976      -2.64590325       0.18638038       0.00000000
Si       0.07775217      -2.60376102      -2.76924159       0.00000000
Si       2.78736561      -2.59584408       0.01412336       0.00000000
Si      -2.64019593       0.11407887      -2.76944727       0.00000000
Si      -2.12749355       0.65409237       3.14320216       0.00000000
Si       0.20763234      -2.54687634       2.88922161       0.00000000
