10
Lattice="16.28999089631971 0.0 0.0 0.0 16.28999089631971 0.0 0.0 0.0 34.279985188174585" Properties=species:S:1:pos:R:3:initial_magmoms:R:1 pbc="T T T"
Si      -1.98140876       0.00975771      -1.20984419       0.00000000
Si       0.21160710       2.32526718      -0.06903993       0.00000000
Si      -0.19701126      -0.83873952       2.17760300       0.00000000
Si       1.86261489      -1.35892809      -0.46274578       0.00000000
Si      -1.94335532      -2.29146543      -1.57670880       0.00000000
Si       3.15152856      -0.44181738       1.26647476       0.00000000
Si      -1.66140895      -2.60653032       1.73909318       0.00000000
Si       1.16447436       2.99610567       1.94833833       0.00000000
Si      -3.75407027       0.39729681       0.30660036       0.00000000
Si       1.16755317       3.03272559      -2.10626631       0.00000000
