10
Lattice="16.28999089631971 0.0 0.0 0.0 16.28999089631971 0.0 0.0 0.0 34.279985188174585" Properties=species:S:1:pos:R:3:initial_magmoms:R:1 pbc="T T T"
Si      -0.90706792       1.34315937       1.65150777       0.00000000
Si      -1.46439769      -1.76779080      -0.43850982       0.00000000
Si       0.19701126       0.83873952      -2.17760300       0.00000000
Si       2.18515689      -0.68012379       0.83931163       0.00000000
Si      -1.21861743      -0.59005638       2.95277673       0.00000000
Si       2.05962615      -0.52018857      -2.64034877       0.00000000
Si       3.34853982       0.39692214      -0.91112824       0.00000000
Si       0.85809204       2.87275779       1.85386264       0.00000000
Si      -1.83922964      -2.62181034       1.74193842       0.00000000
Si      -0.34836979      -3.06396981      -2.18308780       0.00000000
