10
Lattice="16.28999089631971 0.0 0.0 0.0 16.28999089631971 0.0 0.0 0.0 34.279985188174585" Properties=species:S:1:pos:R:3:initial_magmoms:R:1 pbc="T T T"
Si       1.34949944       1.35757765      -1.38395234       0.00000000
Si      -1.36341279      -1.36188214      -1.38535782       0.00000000
Si       1.38996380      -1.41472690       1.35759101       0.00000000
Si      -1.35910236       1.16695207       1.65113069       0.00000000
Si      -0.28372456      -2.33978713       2.82381536       0.00000000
Si       2.70575597       2.71280791      -0.00634180       0.00000000
Si      -2.72903505       2.69773966       0.02149356       0.00000000
Si      -2.71487904      -2.72224375      -0.01782560       0.00000000
Si       2.70650531      -0.00126085      -2.74342875       0.00000000
Si       2.72491301      -2.72792896      -0.02536720       0.00000000
