10
Lattice="16.28999089631971 0.0 0.0 0.0 16.28999089631971 0.0 0.0 0.0 34.279985188174585" Properties=species:S:1:pos:R:3:initial_magmoms:R:1 pbc="T T T"
Si      -0.78739344       1.78015491       1.28361476       0.00000000
Si      -1.76515997      -1.52959842      -0.20235487       0.00000000
Si       0.50339358       0.96208740      -2.08312730       0.00000000
Si       2.06475750      -0.64796733       0.92432604       0.00000000
Si      -0.85809204      -2.87275779      -1.85386264       0.00000000
Si       2.54651796      -0.12311982      -2.58313545       0.00000000
Si       0.09658341       1.30655574       3.39368615       0.00000000
Si       1.82421936      -2.94684471       1.21872271       0.00000000
Si      -3.67967384      -0.12940776      -0.23286407       0.00000000
Si       0.10824705       3.29949063      -1.74396094       0.00000000
