10
Lattice="16.28999089631971 0.0 0.0 0.0 16.28999089631971 0.0 0.0 0.0 34.33025523377368" Properties=species:S:1:pos:R:3:initial_magmoms:R:1 pbc="T T T"
Si      -0.05725935       0.47952873      -2.29541969       0.00000000
Si       1.94610114      -0.76476663       1.13187258       0.00000000
Si      -0.76159008       1.96004538       1.14187299       0.00000000
Si      -1.75290174      -1.84246416      -0.19750893       0.00000000
Si       0.60437529      -2.11311925       2.50901437       0.00000000
Si      -2.12978555       0.61929693       2.50462010       0.00000000
Si      -2.02046336       1.91355372      -2.21786760       0.00000000
Si      -0.74046195      -3.47920910       1.13604028       0.00000000
Si      -3.49088903      -0.74984499       1.10759078       0.00000000
Si      -0.04875597      -1.39344660      -3.67752220       0.00000000
