10
Lattice="16.28999089631971 0.0 0.0 0.0 16.28999089631971 0.0 0.0 0.0 34.33025523377368" Properties=species:S:1:pos:R:3:initial_magmoms:R:1 pbc="T T T"
Si       1.17048537       1.30153842       1.51675757       0.00000000
Si      -1.00745505       1.15326684      -1.83605174       0.00000000
Si       1.57881051      -1.14157062      -1.43445619       0.00000000
Si      -1.57555740      -1.42122105       1.38461347       0.00000000
Si      -2.82247382      -0.38656170      -1.90097029       0.00000000
Si      -2.80974318      -2.33256510      -0.47938795       0.00000000
Si       2.88448659       2.32867179      -0.08675260       0.00000000
Si       2.56978008      -2.67416640       0.17419181       0.00000000
Si      -1.50108603       3.35162419      -0.84538301       0.00000000
Si       2.34945783      -0.15022638       2.99130808       0.00000000
