10
Lattice="16.28999089631971 0.0 0.0 0.0 16.28999089631971 0.0 0.0 0.0 34.33025523377368" Properties=species:S:1:pos:R:3:initial_magmoms:R:1 pbc="T T T"
Si       1.81501877       1.53982854       0.06491855       0.00000000
Si       0.01273063      -1.94600340       1.42158233       0.00000000
Si      -2.06080296       1.22013729       0.28662346       0.00000000
Si       0.09621363      -0.73283823      -2.39199620       0.00000000
Si      -1.31538885       0.98909622      -2.92669022       0.00000000
Si       2.82247382       0.38656170       1.90097029       0.00000000
Si      -1.90345785      -3.01019652       0.41429775       0.00000000
Si       1.24691642      -1.03465935       3.28558376       0.00000000
Si       1.77264848      -3.27472983       0.61715534       0.00000000
Si      -3.29095860       0.88184286      -1.69042271       0.00000000
