10
Lattice="16.28999089631971 0.0 0.0 0.0 16.28999089631971 0.0 0.0 0.0 34.33025523377368" Properties=species:S:1:pos:R:3:initial_magmoms:R:1 pbc="T T T"
Si       1.34804637      -1.34942240       1.35426067       0.00000000
Si       1.34172585       1.34835262      -1.37714179       0.00000000
Si      -1.36534635       1.36563631       1.34945443       0.00000000
Si      -1.34483724      -1.36608984      -1.37297410       0.00000000
Si      -0.60437529       2.11311925      -2.50901437       0.00000000
Si      -2.35727703       0.27065509      -2.70652331       0.00000000
Si       2.70319518      -2.70918405      -0.00720936       0.00000000
Si       2.70440064       0.00688415       2.70986021       0.00000000
Si      -0.00843822      -2.70766908       2.70982588       0.00000000
Si       2.69907381       2.72832739      -0.01204993       0.00000000
