10
Lattice="16.28999089631971 0.0 0.0 0.0 16.28999089631971 0.0 0.0 0.0 34.33025523377368" Properties=species:S:1:pos:R:3:initial_magmoms:R:1 pbc="T T T"
Si      -1.34804637       1.34942240      -1.35426067       0.00000000
Si       1.35635427       1.35630655       1.35559955       0.00000000
Si      -1.35648459      -1.35824668       1.35556522       0.00000000
Si       1.35514881      -1.35976165      -1.36147002       0.00000000
Si      -2.69288361      -0.01666744      -2.72723476       0.00000000
Si      -0.00346977      -2.69990737      -2.72335888       0.00000000
Si      -0.00013032       2.71382067       2.71243498       0.00000000
Si       2.71495656      -0.00100071       2.71236632       0.00000000
Si      -2.71313208      -2.71448692      -0.00288374       0.00000000
Si       2.71674846       2.71087218      -0.00480624       0.00000000
