10
Lattice="16.28999089631971 0.0 0.0 0.0 16.28999089631971 0.0 0.0 0.0 34.33025523377368" Properties=species:S:1:pos:R:3:initial_magmoms:R:1 pbc="T T T"
Si      -1.53767663      -1.80082855       0.06999943       0.00000000
Si       1.23400008      -1.39554964      -1.57864334       0.00000000
Si      -1.62930299       1.22378625      -1.37928744       0.00000000
Si       0.65379915       0.39488589       2.71253797       0.00000000
Si      -2.62338395      -1.23422814       2.00272522       0.00000000
Si      -2.81215410       2.24054289       0.45563140       0.00000000
Si       2.60688870      -2.75220641      -0.17350521       0.00000000
Si      -0.33901119       2.69822673      -2.81587210       0.00000000
Si       2.53203615      -0.04427622      -2.99919576       0.00000000
Si      -1.01393847      -1.02526002       3.72905740       0.00000000
