10
Lattice="16.28999089631971 0.0 0.0 0.0 16.28999089631971 0.0 0.0 0.0 34.33025523377368" Properties=species:S:1:pos:R:3:initial_magmoms:R:1 pbc="T T T"
Si       1.05292044       1.14442137       1.77243774       0.00000000
Si      -0.22038741      -2.10922105       1.08957425       0.00000000
Si      -2.10634587       1.13722119      -0.32888403       0.00000000
Si       1.52728524      -0.07048683      -1.89643869       0.00000000
Si       0.05993091       3.22569693       1.50218982       0.00000000
Si      -1.08025506      -1.39505931       3.18361800       0.00000000
Si       3.25956384       1.34798121       1.07264942       0.00000000
Si      -1.88351496       2.02874031      -2.46992592       0.00000000
Si      -2.20402071       2.37535893       1.91820408       0.00000000
Si       0.43425882      -1.24004367      -3.57759223       0.00000000
