10
Lattice="16.28999089631971 0.0 0.0 0.0 16.28999089631971 0.0 0.0 0.0 34.33025523377368" Properties=species:S:1:pos:R:3:initial_magmoms:R:1 pbc="T T T"
Si      -0.42344749      -2.02035259       1.24677258       0.00000000
Si       1.33874185      -1.34121109      -1.56223347       0.00000000
Si      -1.36732267       1.33783254      -1.56535752       0.00000000
Si       1.41482755       1.41343443       1.46573107       0.00000000
Si       1.50645391      -1.61118037       2.91501793       0.00000000
Si      -2.72001169       2.71156824      -0.22630517       0.00000000
Si       2.86629261      -2.56198825      -0.21044458       0.00000000
Si       2.70511935       2.88787491       0.02914640       0.00000000
Si       2.68821033      -0.00377928      -2.93719529       0.00000000
Si      -0.02159121       2.70993924      -2.93530712       0.00000000
