10
Lattice="16.28999089631971 0.0 0.0 0.0 16.28999089631971 0.0 0.0 0.0 34.33025523377368" Properties=species:S:1:pos:R:3:initial_magmoms:R:1 pbc="T T T"
Si       0.35754921       0.44847999       2.38279569       0.00000000
Si      -1.91663253      -1.54601711       0.08026418       0.00000000
Si       2.06000082      -0.77724477      -1.17330579       0.00000000
Si      -1.36827855       1.84686246      -1.09118777       0.00000000
Si      -0.38493270       2.69983944       2.08638810       0.00000000
Si       1.02325635       3.30323733       0.17295592       0.00000000
Si      -1.57781682      -2.14015251      -2.34163369       0.00000000
Si      -2.36877777       2.65917960       0.85132215       0.00000000
Si       1.88204886       0.18396297      -3.25828635       0.00000000
Si      -1.56108699      -2.83003631       2.13263098       0.00000000
