10
Lattice="16.28999089631971 0.0 0.0 0.0 16.28999089631971 0.0 0.0 0.0 34.33025523377368" Properties=species:S:1:pos:R:3:initial_magmoms:R:1 pbc="T T T"
Si      -1.35782037      -1.35536058      -1.35566821       0.00000000
Si       1.35713619      -1.35731538       1.35783101       0.00000000
Si      -1.35830907       1.35832536       1.35779668       0.00000000
Si       1.35791811       1.36042677      -1.35645780       0.00000000
Si       0.00141723       2.71006956      -2.71549038       0.00000000
Si      -2.70845685      -0.00851967      -2.71737854       0.00000000
Si       2.71355562      -2.71355562       0.00037763       0.00000000
Si       2.71189404      -0.00431685      -2.71521573       0.00000000
Si      -2.71381626       0.00179190       2.71363654       0.00000000
Si       0.00136836      -2.71371852       2.71514707       0.00000000
