10
Lattice="16.28999089631971 0.0 0.0 0.0 16.28999089631971 0.0 0.0 0.0 34.33025523377368" Properties=species:S:1:pos:R:3:initial_magmoms:R:1 pbc="T T T"
Si      -0.98559387      -0.76838301       1.97316685       0.00000000
Si       0.75579084       2.21205168       0.06848890       0.00000000
Si       2.05087842      -1.21616253      -0.26832542       0.00000000
Si      -1.83985776      -0.15488532      -1.62207114       0.00000000
Si       2.34766593       2.15436879      -1.85421245       0.00000000
Si       0.78400512      -0.96211998       3.52451762       0.00000000
Si      -2.72917773       2.10163806      -1.48694718       0.00000000
Si      -1.19707065       3.55340286      -0.17693823       0.00000000
Si       3.75012090       0.47726442      -0.62590956       0.00000000
Si       1.77963363       2.73109995       2.11412696       0.00000000
