10
Lattice="16.28999089631971 0.0 0.0 0.0 16.28999089631971 0.0 0.0 0.0 34.33025523377368" Properties=species:S:1:pos:R:3:initial_magmoms:R:1 pbc="T T T"
Si      -2.05087842       1.21616253       0.26832542       0.00000000
Si       0.50376825      -1.90309554       1.39604061       0.00000000
Si       1.69924248       1.69342695      -0.35758414       0.00000000
Si       1.88892324      -2.20903803      -0.69271628       0.00000000
Si       0.86392386      -0.84923028       3.45819153       0.00000000
Si      -1.29508758       3.42821421       0.33681432       0.00000000
Si       0.29678751       3.37053132      -1.58588703       0.00000000
Si      -3.03647229       0.44777952       2.24149228       0.00000000
Si       3.17136978       0.87171048      -2.05672674       0.00000000
Si      -1.26687330       0.25404255       3.79284305       0.00000000
