10
Lattice="16.28999089631971 0.0 0.0 0.0 16.28999089631971 0.0 0.0 0.0 34.33025523377368" Properties=species:S:1:pos:R:3:initial_magmoms:R:1 pbc="T T T"
Si       1.02858318      -2.10479832       0.15407427       0.00000000
Si      -1.20243006       1.05958305       1.73361020       0.00000000
Si       1.20212055       1.72714725      -1.12836746       0.00000000
Si      -2.16446859      -0.65726892      -0.77679112       0.00000000
Si      -2.09803797       2.70601335       0.23832077       0.00000000
Si      -2.66817005      -1.99690965       1.15566003       0.00000000
Si      -0.70496604      -3.43093464       1.07810794       0.00000000
Si      -0.30116952       3.54677283      -1.38876259       0.00000000
Si       3.01242825      -2.06413848       1.38914022       0.00000000
Si       0.09765855       2.32262820       3.14587327       0.00000000
