10
Lattice="16.28999089631971 0.0 0.0 0.0 16.28999089631971 0.0 0.0 0.0 34.33025523377368" Properties=species:S:1:pos:R:3:initial_magmoms:R:1 pbc="T T T"
Si      -1.30008861      -1.26304515      -1.41226308       0.00000000
Si      -1.51557273       1.18110645       1.35030582       0.00000000
Si       1.22360706      -1.54758258       1.33971493       0.00000000
Si       1.42390890       1.37051028      -1.44954575       0.00000000
Si      -2.19569652       0.38338515      -2.90755251       0.00000000
Si      -0.15428259       2.52185490       2.72973401       0.00000000
Si       2.66036877       2.61288342       0.08930678       0.00000000
Si       2.56652208      -0.19943847       2.72997432       0.00000000
Si      -2.72142858       2.62345563      -0.23912409       0.00000000
Si      -2.64910586      -2.78241345      -0.06121775       0.00000000
