10
Lattice="16.28999089631971 0.0 0.0 0.0 16.28999089631971 0.0 0.0 0.0 34.33025523377368" Properties=species:S:1:pos:R:3:initial_magmoms:R:1 pbc="T T T"
Si       1.35671265      -1.35741312       1.35707575       0.00000000
Si      -1.35773892       1.35695700       1.35717874       0.00000000
Si      -1.35832536      -1.35690813      -1.35989083       0.00000000
Si       1.35957969       1.35863487      -1.35738472       0.00000000
Si       0.00120546      -2.71394658       2.71291561       0.00000000
Si       0.00123804       2.71461447       2.71377386       0.00000000
Si      -2.71464542       0.00104256       2.71404850       0.00000000
Si       2.71433754       2.71484253       0.00000000       0.00000000
Si       2.71601541       0.00185706       2.71401417       0.00000000
Si      -2.71590627       2.71454931      -0.00054928       0.00000000
