10
Lattice="16.28999089631971 0.0 0.0 0.0 16.28999089631971 0.0 0.0 0.0 34.33025523377368" Properties=species:S:1:pos:R:3:initial_magmoms:R:1 pbc="T T T"
Si      -1.23180093       0.82474641       1.81957320       0.00000000
Si      -1.80734292      -0.31697082      -1.46614303       0.00000000
Si       0.98714142      -2.15699148       0.33798155       0.00000000
Si       1.48739103       1.75861953      -0.74386839       0.00000000
Si      -0.31998447      -0.26202465      -3.32492141       0.00000000
Si       2.51620227      -0.05113431       2.25247797       0.00000000
Si       0.54928251       1.77277554       2.94423299       0.00000000
Si       3.31679061       0.55869813      -1.68825991       0.00000000
Si       1.62083871       3.22160814       1.19132918       0.00000000
Si       1.98669582      -2.36314143       2.42364871       0.00000000
