10
Lattice="16.28999089631971 0.0 0.0 0.0 16.28999089631971 0.0 0.0 0.0 34.33025523377368" Properties=species:S:1:pos:R:3:initial_magmoms:R:1 pbc="T T T"
Si       1.27861839      -1.39279500      -1.42106738       0.00000000
Si      -0.74486025      -1.79810649       1.37781123       0.00000000
Si      -1.43887941       1.31227353      -1.41186687       0.00000000
Si       1.38324906       1.31997870       1.47235681       0.00000000
Si      -0.31529295      -0.79371396       3.64185850       0.00000000
Si       2.59731018      -2.78034462      -0.01074538       0.00000000
Si       2.62516608      -0.04067613      -2.78291504       0.00000000
Si      -2.67498090      -2.74129749       0.13841967       0.00000000
Si       2.71246419       2.72226720       0.04758176       0.00000000
Si      -0.08607636       2.67168765      -2.78226276       0.00000000
