10
Lattice="16.28999089631971 0.0 0.0 0.0 16.28999089631971 0.0 0.0 0.0 34.33025523377368" Properties=species:S:1:pos:R:3:initial_magmoms:R:1 pbc="T T T"
Si       1.52396208       0.64320155       1.63484200       0.00000000
Si      -1.78621479       1.48278000      -0.36393524       0.00000000
Si       1.29966507      -0.04168611      -2.00523133       0.00000000
Si      -1.24603839      -1.91886426       0.72635995       0.00000000
Si       0.12052971      -3.42968031      -0.40595550       0.00000000
Si      -0.01526373      -1.16703189      -3.60739091       0.00000000
Si      -3.36098538      -1.82816154      -0.29582397       0.00000000
Si      -2.64608244       2.19694175       1.73010851       0.00000000
Si       3.51833049       1.44167707       0.64537483       0.00000000
Si       2.41883694      -3.02316336      -0.24892882       0.00000000
