10
Lattice="16.28999089631971 0.0 0.0 0.0 16.28999089631971 0.0 0.0 0.0 34.33025523377368" Properties=species:S:1:pos:R:3:initial_magmoms:R:1 pbc="T T T"
Si       0.81966556       2.17135926      -0.11061214       0.00000000
Si      -0.47352098      -0.44678583      -2.25398850       0.00000000
Si       2.07091675      -1.11299796       0.26180267       0.00000000
Si      -1.72928680      -0.49891383       1.79777348       0.00000000
Si      -1.70025802      -2.43599194      -1.98525111       0.00000000
Si      -0.96802252       3.46766859      -0.79529514       0.00000000
Si       3.69129934       0.39532572      -0.65148562       0.00000000
Si      -0.78326441      -3.68618444      -0.09688003       0.00000000
Si      -1.40594659      -2.80069572       2.13802083       0.00000000
Si       1.02666259       2.99371104       2.10417118       0.00000000
