10
Lattice="16.28999089631971 0.0 0.0 0.0 16.28999089631971 0.0 0.0 0.0 34.33025523377368" Properties=species:S:1:pos:R:3:initial_magmoms:R:1 pbc="T T T"
Si       1.35567009      -1.35264667      -1.35154857       0.00000000
Si      -1.36039419      -1.35456563       1.36040578       0.00000000
Si       1.35485559       1.36169739       1.35971918       0.00000000
Si      -1.36572102       1.36687761      -1.36150435       0.00000000
Si      -0.00317655      -2.69148986      -2.72423773       0.00000000
Si       2.71298547      -2.71187386       0.00226580       0.00000000
Si       2.69524566      -0.00250866      -2.73046181       0.00000000
Si      -2.71674846      -2.71087218       0.00480624       0.00000000
Si      -0.00179190      -2.71187289       2.71717256       0.00000000
Si       2.71360449       0.00289962       2.71737854       0.00000000
