10
Lattice="16.28999089631971 0.0 0.0 0.0 16.28999089631971 0.0 0.0 0.0 34.33025523377368" Properties=species:S:1:pos:R:3:initial_magmoms:R:1 pbc="T T T"
Si       0.47352098       0.44678583       2.25398850       0.00000000
Si      -1.22673704      -1.98920611       0.26873739       0.00000000
Si      -1.16105576       1.53458316      -1.35776235       0.00000000
Si       1.87956138      -0.13677084      -1.42072408       0.00000000
Si      -0.86179217      -2.71343833      -1.96170054       0.00000000
Si       1.01609201      -1.74056858      -2.98618459       0.00000000
Si       1.29318654       2.61814509       2.14337635       0.00000000
Si       2.54443773      -0.66621213       2.51579117       0.00000000
Si      -0.30974344      -3.23939861       2.15710846       0.00000000
Si      -3.30907145       2.00446821      -0.62323180       0.00000000
