10
Lattice="16.28999089631971 0.0 0.0 0.0 16.28999089631971 0.0 0.0 0.0 34.33025523377368" Properties=species:S:1:pos:R:3:initial_magmoms:R:1 pbc="T T T"
Si       1.27156482      -2.00029797       0.03777188       0.00000000
Si      -1.82174328      -1.01527425       1.18078739       0.00000000
Si       1.00910034       1.87510932       1.16537309       0.00000000
Si      -0.59686560      -0.04997772      -2.37061226       0.00000000
Si       2.23575363       0.30125097       2.60618725       0.00000000
Si       0.24132006      -2.27696733      -2.57807010       0.00000000
Si      -0.49511826      -2.44446111       2.60879978       0.00000000
Si       3.29413122      -1.21344210       1.10602635       0.00000000
Si      -2.79121005       0.75943980      -2.41702679       0.00000000
Si      -0.48172788       3.01837410       2.60940399       0.00000000
