10
Lattice="16.28999089631971 0.0 0.0 0.0 16.28999089631971 0.0 0.0 0.0 34.33025523377368" Properties=species:S:1:pos:R:3:initial_magmoms:R:1 pbc="T T T"
Si      -2.19434445       0.80941752      -0.04641453       0.00000000
Si       0.83818566      -2.22698961      -0.20745785       0.00000000
Si       0.23586291       0.58564179      -2.36000038       0.00000000
Si       0.59686560       0.04997772       2.37061226       0.00000000
Si      -1.66483800       3.12142464      -0.21758528       0.00000000
Si      -0.13098789       2.86435215      -2.10348457       0.00000000
Si       1.86843042      -1.95032025       2.40838414       0.00000000
Si      -1.15759998      -3.27106458      -1.39267624       0.00000000
Si       2.64723903      -2.02359267      -1.84096097       0.00000000
Si       2.40710814       0.01280394      -2.97255547       0.00000000
