10
Lattice="16.28999089631971 0.0 0.0 0.0 16.28999089631971 0.0 0.0 0.0 34.33025523377368" Properties=species:S:1:pos:R:3:initial_magmoms:R:1 pbc="T T T"
Si       0.00850338      -1.87297533      -1.38210252       0.00000000
Si       0.05725935      -0.47952873       2.29541969       0.00000000
Si       1.73354922       1.32613632      -0.92403367       0.00000000
Si      -1.96320401       1.43402499       0.07755209       0.00000000
Si      -1.69564239      -2.32199289       2.09791075       0.00000000
Si      -1.45950255       2.77366572      -1.85489906       0.00000000
Si      -1.84433262      -3.14012719      -0.40135524       0.00000000
Si       0.70496604       3.43093464      -1.07810794       0.00000000
Si      -0.70433073       1.48051665       3.43729267       0.00000000
Si      -0.41524839      -1.33304328      -3.69726756       0.00000000
