10
Lattice="16.28999089631971 0.0 0.0 0.0 16.28999089631971 0.0 0.0 0.0 34.33025523377368" Properties=species:S:1:pos:R:3:initial_magmoms:R:1 pbc="T T T"
Si      -1.38476403       1.28801772      -1.38797299       0.00000000
Si       1.31834970      -1.44324513      -1.38684010       0.00000000
Si      -1.65032361      -0.93498084       1.47379868       0.00000000
Si       1.87639623       0.91253322       1.25106386       0.00000000
Si      -0.19912896      -0.58899753       3.38448443       0.00000000
Si      -2.55502134      -2.55865401      -0.03316305       0.00000000
Si      -2.77008192       2.61219924       0.02114745       0.00000000
Si      -0.02621061       2.63792115      -2.74885940       0.00000000
Si       3.55016115      -0.84302379       1.11909829       0.00000000
Si       2.68899030      -0.07982100      -2.74525472       0.00000000
