10
Lattice="16.28999089631971 0.0 0.0 0.0 16.28999089631971 0.0 0.0 0.0 34.33025523377368" Properties=species:S:1:pos:R:3:initial_magmoms:R:1 pbc="T T T"
Si      -0.69818940       0.33875055       2.22175237       0.00000000
Si      -0.52950645      -2.31200712       0.17117075       0.00000000
Si       1.53385011      -0.25707249      -1.88589929       0.00000000
Si      -1.96691976       1.82390985       0.69175503       0.00000000
Si      -1.52906085      -2.10585717      -1.91449641       0.00000000
Si      -2.51620227       0.05113431      -2.25247797       0.00000000
Si       1.66483800      -3.12142464       0.21758528       0.00000000
Si      -0.89536356       3.27274245      -1.06114878       0.00000000
Si      -1.02881124       1.80975384      -2.99634635       0.00000000
Si       1.90070091      -2.53578285      -2.14241511       0.00000000
