10
Lattice="16.28999089631971 0.0 0.0 0.0 16.28999089631971 0.0 0.0 0.0 34.33025523377368" Properties=species:S:1:pos:R:3:initial_magmoms:R:1 pbc="T T T"
Si       1.53709182      -1.00908405       1.40939509       0.00000000
Si      -1.15727418      -1.55729142      -1.32168123       0.00000000
Si       1.59568695       1.13549445      -1.34427056       0.00000000
Si      -1.30129407       1.56716546       1.60037440       0.00000000
Si       2.40345918       1.20231603       1.69498864       0.00000000
Si      -0.34222032      -1.64491533       2.71130208       0.00000000
Si       0.65787165       2.93619824       1.65743132       0.00000000
Si      -2.36688813      -0.11754864      -2.73083601       0.00000000
Si       0.34269273       2.59976250      -2.71370520       0.00000000
Si       2.86177833      -2.47353876       0.06742466       0.00000000
