10
Lattice="16.28999089631971 0.0 0.0 0.0 16.28999089631971 0.0 0.0 0.0 34.33025523377368" Properties=species:S:1:pos:R:3:initial_magmoms:R:1 pbc="T T T"
Si       0.20215890      -1.01113659      -2.12202292       0.00000000
Si      -0.77382387      -1.47756816       1.69358110       0.00000000
Si       2.27577816      -0.26366994       0.67369731       0.00000000
Si      -1.89299574       1.50390909      -0.06272141       0.00000000
Si       2.13099264       1.47652560       2.26971176       0.00000000
Si       0.28600353      -3.35686401       0.78595730       0.00000000
Si      -0.38543769      -3.20458509      -1.46511312       0.00000000
Si      -3.20792454       0.37856331      -1.66488099       0.00000000
Si      -1.56496401      -0.02243133      -3.34194922       0.00000000
Si       2.52325584      -2.67273288       1.05102135       0.00000000
