10
Lattice="16.28999089631971 0.0 0.0 0.0 16.28999089631971 0.0 0.0 0.0 34.33025523377368" Properties=species:S:1:pos:R:3:initial_magmoms:R:1 pbc="T T T"
Si      -2.24135739       0.31555359      -0.59827369       0.00000000
Si       1.28622582      -1.46179944      -1.31697799       0.00000000
Si       0.96793551       2.11688550      -0.38652456       0.00000000
Si       0.50808510      -0.21509316       2.33562589       0.00000000
Si       3.21698178       1.35055503      -0.60558604       0.00000000
Si       0.68255100      -3.50731845      -0.38374381       0.00000000
Si      -2.84144841       2.31220260       0.54193771       0.00000000
Si       3.49876620      -1.00051551      -0.75372117       0.00000000
Si      -2.33080578       0.29774862      -2.95597395       0.00000000
Si       0.69911793       3.36644253       1.60569560       0.00000000
