10
Lattice="16.28999089631971 0.0 0.0 0.0 16.28999089631971 0.0 0.0 0.0 34.33025523377368" Properties=species:S:1:pos:R:3:initial_magmoms:R:1 pbc="T T T"
Si       1.35024552       1.33302699      -1.39243593       0.00000000
Si      -1.36249560      -1.38179925      -1.39490771       0.00000000
Si       1.52546076      -1.23264801       1.38811032       0.00000000
Si      -1.34558658       1.50985494       1.57143398       0.00000000
Si       0.22742469      -2.58392143       2.80866274       0.00000000
Si      -2.71899485       2.68866450      -0.01510532       0.00000000
Si       2.69553888       2.71262709      -0.01479635       0.00000000
Si      -2.71196409      -2.71923106      -0.01994589       0.00000000
Si      -0.00063531       2.69211798      -2.75442091       0.00000000
Si       2.71999017      -2.74270332      -0.01877866       0.00000000
