10
Lattice="16.28999089631971 0.0 0.0 0.0 16.28999089631971 0.0 0.0 0.0 34.33025523377368" Properties=species:S:1:pos:R:3:initial_magmoms:R:1 pbc="T T T"
Si       1.94518890       0.04451894       1.34451087       0.00000000
Si      -0.51183180       1.88048013      -1.36730617       0.00000000
Si      -1.84801905      -1.04848534       1.09039818       0.00000000
Si       0.22089240      -1.80101818      -1.57208626       0.00000000
Si      -1.70323353      -2.78868088      -0.50561628       0.00000000
Si       2.34255631      -2.22762070       1.19733698       0.00000000
Si       2.31899553      -2.86429906      -1.17673882       0.00000000
Si      -1.43068554       1.01562123      -3.45101651       0.00000000
Si       1.47807315       3.12163152      -1.79746451       0.00000000
Si      -0.37278036      -1.10597275      -3.75559470       0.00000000
