10
Lattice="16.28999089631971 0.0 0.0 0.0 16.28999089631971 0.0 0.0 0.0 34.33025523377368" Properties=species:S:1:pos:R:3:initial_magmoms:R:1 pbc="T T T"
Si       0.32334021      -2.30178189       0.34024735       0.00000000
Si      -0.02352276       1.52350596       1.87003871       0.00000000
Si      -2.10737214      -0.14385699      -1.23564957       0.00000000
Si       1.72928680       0.49891383      -1.79777348       0.00000000
Si       2.37111931      -2.42116804       1.75994152       0.00000000
Si       0.94602238      -3.18727061      -1.89465351       0.00000000
Si      -2.34750303       1.89253962      -2.36724407       0.00000000
Si       2.25224793       2.15298414       2.23884885       0.00000000
Si      -3.91642551      -0.34725393       0.39785355       0.00000000
Si      -0.49653549       3.85095600       0.98102192       0.00000000
