10
Lattice="16.28999089631971 0.0 0.0 0.0 16.28999089631971 0.0 0.0 0.0 34.33025523377368" Properties=species:S:1:pos:R:3:initial_magmoms:R:1 pbc="T T T"
Si       1.35554954       1.35684297      -1.35611450       0.00000000
Si       1.35320378      -1.35843939       1.35862061       0.00000000
Si      -1.35659776       1.35527913       1.36050878       0.00000000
Si      -1.35934353      -1.35822762      -1.35583986       0.00000000
Si      -0.00245490       2.71336014      -2.71380819       0.00000000
Si       2.71335362      -0.00100998      -2.71449480       0.00000000
Si       2.71397264      -2.71555440      -0.00030897       0.00000000
Si       0.00373530      -2.69587120       2.73358243       0.00000000
Si      -2.71645265       0.00045612      -2.71332757       0.00000000
Si      -0.00223988      -2.71607568      -2.71425449       0.00000000
