10
Lattice="16.28999089631971 0.0 0.0 0.0 16.28999089631971 0.0 0.0 0.0 34.33025523377368" Properties=species:S:1:pos:R:3:initial_magmoms:R:1 pbc="T T T"
Si      -2.14801569       0.46988505       0.73453055       0.00000000
Si       1.16105576      -1.53458316       1.35776235       0.00000000
Si       0.00144981       0.62701839      -2.27228653       0.00000000
Si       0.28522161       2.27949228       0.54101079       0.00000000
Si      -2.01766311       2.67149484      -0.04116200       0.00000000
Si       3.04061714      -1.67135400      -0.06296172       0.00000000
Si       2.15433036       2.59862967      -0.87126803       0.00000000
Si      -1.80970497       2.19722778      -2.33147193       0.00000000
Si       0.66655422       2.37987126       2.81645571       0.00000000
Si       3.70254500       0.69540381      -0.72055813       0.00000000
