10
Lattice="16.28999089631971 0.0 0.0 0.0 16.28999089631971 0.0 0.0 0.0 34.33025523377368" Properties=species:S:1:pos:R:3:initial_magmoms:R:1 pbc="T T T"
Si      -2.23725231      -0.68413113      -0.26506405       0.00000000
Si       0.31995189      -0.56438334       2.28155571       0.00000000
Si       1.78357581      -0.73695960      -1.45419609       0.00000000
Si      -0.24747768       2.40906294      -0.37732405       0.00000000
Si      -3.29707971       1.19516472       0.64255975       0.00000000
Si       2.53249227      -0.10309941       2.84481252       0.00000000
Si      -2.52325584       2.67273288      -1.05102135       0.00000000
Si      -0.96627393       0.89741610       3.59853369       0.00000000
Si       1.31272965       0.19347633      -3.64851857       0.00000000
Si      -2.90869353      -0.53185221      -2.51613447       0.00000000
