10
Lattice="16.28999089631971 0.0 0.0 0.0 16.28999089631971 0.0 0.0 0.0 34.33025523377368" Properties=species:S:1:pos:R:3:initial_magmoms:R:1 pbc="T T T"
Si      -1.09757133      -1.53326367       1.44207751       0.00000000
Si      -0.71200332      -0.49026384      -2.24399839       0.00000000
Si      -0.60597171       2.33225559       0.24261205       0.00000000
Si       2.15344582      -1.15136091       0.50925529       0.00000000
Si       1.53525172       3.03469668       0.84610394       0.00000000
Si       0.71358345      -3.10347306       1.50126290       0.00000000
Si       2.92540122       1.92906180      -0.83171956       0.00000000
Si      -1.68399504      -2.63691117      -1.91102906       0.00000000
Si      -2.23603056       1.26097632      -2.69187115       0.00000000
Si      -2.79938763      -2.58416415       0.21161181       0.00000000
