10
Lattice="16.28999089631971 0.0 0.0 0.0 16.28999089631971 0.0 0.0 0.0 34.33025523377368" Properties=species:S:1:pos:R:3:initial_magmoms:R:1 pbc="T T T"
Si      -0.79907337      -1.98519714      -0.84160668       0.00000000
Si      -1.57384206       1.68120945      -0.43836327       0.00000000
Si       1.91298357       0.16381224      -1.37053322       0.00000000
Si       1.03759155      -0.26709084       2.23239475       0.00000000
Si      -0.34990920       3.62494854       0.12767429       0.00000000
Si       3.03726303       2.01026745      -0.57389920       0.00000000
Si       0.67298877      -3.72845520      -0.23210699       0.00000000
Si      -1.39937616      -1.61101584      -3.15773297       0.00000000
Si      -3.26438568       1.60883298       1.35892958       0.00000000
Si       1.41683904       0.89578710      -3.52771034       0.00000000
