10
Lattice="16.28999089631971 0.0 0.0 0.0 16.28999089631971 0.0 0.0 0.0 34.33025523377368" Properties=species:S:1:pos:R:3:initial_magmoms:R:1 pbc="T T T"
Si       1.35666803      -1.35689184       1.35752204       0.00000000
Si      -1.35873261      -1.35531171      -1.35841463       0.00000000
Si       1.35614401       1.35898364      -1.35748771       0.00000000
Si      -1.35788553       1.35762139       1.35755637       0.00000000
Si      -0.00042354      -2.71503801       2.71377386       0.00000000
Si       2.71427468      -2.71464705      -0.00013732       0.00000000
Si       2.71408246       2.71529443      -0.00003433       0.00000000
Si      -2.71531494      -2.71437012       0.00048062       0.00000000
Si      -2.71523349       0.00084708       2.71500975       0.00000000
Si       2.71453369       0.00061902       2.71579935       0.00000000
