10
Lattice="16.28999089631971 0.0 0.0 0.0 16.28999089631971 0.0 0.0 0.0 34.33025523377368" Properties=species:S:1:pos:R:3:initial_magmoms:R:1 pbc="T T T"
Si      -0.22283091      -0.89151912       2.14104189       0.00000000
Si      -2.18880096       0.89409294      -0.26139071       0.00000000
Si       1.15541712       2.05110648       0.36870715       0.00000000
Si       0.39946338      -1.85629437      -1.56961448       0.00000000
Si      -2.00417662      -2.35786347       1.52079683       0.00000000
Si      -1.80023885       1.73366325      -2.42711607       0.00000000
Si      -1.26827424      -3.27644028      -0.55309505       0.00000000
Si       1.88351496      -2.02874031       2.46992592       0.00000000
Si      -0.42863877       3.56048901       1.44983615       0.00000000
Si      -2.58173857       2.23034535       1.84439399       0.00000000
