10
Lattice="16.28999089631971 0.0 0.0 0.0 16.28999089631971 0.0 0.0 0.0 34.33025523377368" Properties=species:S:1:pos:R:3:initial_magmoms:R:1 pbc="T T T"
Si      -0.82727136      -0.25612767      -2.21632819       0.00000000
Si       1.44699183      -1.86114879       0.42480282       0.00000000
Si      -2.18683476      -0.39302883       0.90027712       0.00000000
Si       1.21723767       2.03714595       0.44601893       0.00000000
Si       1.81091043       1.34210052       2.62952737       0.00000000
Si       1.05204078       0.37970361      -3.51823518       0.00000000
Si      -0.11321550       0.35443782       3.69599734       0.00000000
Si       3.35311731      -1.44738279      -1.04642109       0.00000000
Si       0.28777914      -3.86286399      -0.31535790       0.00000000
Si      -2.38899366       0.61810776       3.02230004       0.00000000
