10
Lattice="16.28999089631971 0.0 0.0 0.0 16.28999089631971 0.0 0.0 0.0 34.33025523377368" Properties=species:S:1:pos:R:3:initial_magmoms:R:1 pbc="T T T"
Si      -0.14478552       1.74019554       1.59601446       0.00000000
Si      -2.27577816       0.26366994      -0.67369731       0.00000000
Si       1.92412593       0.98766270      -1.06646997       0.00000000
Si       0.24747768      -2.40906294       0.37732405       0.00000000
Si       1.70323353       2.78868088       0.50561628       0.00000000
Si      -3.04960203      -1.21389822       1.01988379       0.00000000
Si      -2.07361926      -0.74746665      -2.79572023       0.00000000
Si       0.24913926       0.60523866       3.58933318       0.00000000
Si      -1.98977463      -3.09319407       0.11226000       0.00000000
Si       0.11321550      -0.35443782      -3.69599734       0.00000000
