10
Lattice="16.28999089631971 0.0 0.0 0.0 16.28999089631971 0.0 0.0 0.0 34.33025523377368" Properties=species:S:1:pos:R:3:initial_magmoms:R:1 pbc="T T T"
Si      -2.15344582       1.15136091      -0.50925529       0.00000000
Si       0.71301819       0.01949913       2.39302611       0.00000000
Si       0.39293761      -1.33625241      -2.10578470       0.00000000
Si       2.15309980       1.33014366      -0.39455784       0.00000000
Si      -1.43986237      -1.95211215       0.99200761       0.00000000
Si      -3.25101715      -0.38190276       0.93282222       0.00000000
Si       0.77195541       3.08042271      -1.34097485       0.00000000
Si       2.58173857      -2.23034535      -1.84439399       0.00000000
Si       2.26123282      -1.88372673       2.54373601       0.00000000
Si       2.35890766      -3.12186447       0.29664790       0.00000000
