10
Lattice="16.28999089631971 0.0 0.0 0.0 16.28999089631971 0.0 0.0 0.0 34.33025523377368" Properties=species:S:1:pos:R:3:initial_magmoms:R:1 pbc="T T T"
Si       1.35814617       1.35767407       1.35604584       0.00000000
Si      -1.35761512      -1.35752262       1.35793400       0.00000000
Si      -1.35806635       1.35715279      -1.35789967       0.00000000
Si       1.35852084      -1.35745746      -1.35714441       0.00000000
Si       2.71500543       0.00078922      -2.71270962       0.00000000
Si       0.00187335      -2.71369770      -2.71559337       0.00000000
Si       2.71487511       2.71460989      -0.00027464       0.00000000
Si      -0.00262269       2.71478908       2.71497542       0.00000000
Si      -2.71517000       2.71500085       0.00051495       0.00000000
Si       2.71515204      -2.71514751      -0.00037763       0.00000000
