10
Lattice="16.28999089631971 0.0 0.0 0.0 16.28999089631971 0.0 0.0 0.0 34.33025523377368" Properties=species:S:1:pos:R:3:initial_magmoms:R:1 pbc="T T T"
Si       1.35690650       1.35591444      -1.35686977       0.00000000
Si      -1.36020575       1.35322659       1.35762503       0.00000000
Si      -1.35793931      -1.35910728      -1.35666378       0.00000000
Si       1.35869840      -1.35951453       1.35951320       0.00000000
Si      -0.00126085       2.71350675      -2.71459779       0.00000000
Si       2.71464542      -0.00104256      -2.71404850       0.00000000
Si      -2.71595907       2.71311579      -0.00068661       0.00000000
Si       2.71588346       2.71357191      -0.00027464       0.00000000
Si      -2.71520973      -0.00201996      -2.71432315       0.00000000
Si       2.71585088      -2.71498914      -0.00113290       0.00000000
