10
Lattice="16.28999089631971 0.0 0.0 0.0 16.28999089631971 0.0 0.0 0.0 34.33025523377368" Properties=species:S:1:pos:R:3:initial_magmoms:R:1 pbc="T T T"
Si       1.34213962       1.36710567      -1.38673710       0.00000000
Si      -1.28669155       1.39299048       1.42851705       0.00000000
Si      -1.37464683      -1.34978940      -1.39013580       0.00000000
Si       1.46982064      -1.33203330       1.53130189       0.00000000
Si      -2.71961617      -2.67643071      -0.01846969       0.00000000
Si       2.70320170      -2.69619048      -0.01143198       0.00000000
Si       2.70592213       2.72153772      -0.01898464       0.00000000
Si      -2.72950420       2.71880100      -0.01314850       0.00000000
Si       2.70144238       0.01055592      -2.74803548       0.00000000
Si      -0.01444108      -2.70301599      -2.74776083       0.00000000
