10
Lattice="16.28999089631971 0.0 0.0 0.0 16.28999089631971 0.0 0.0 0.0 34.33025523377368" Properties=species:S:1:pos:R:3:initial_magmoms:R:1 pbc="T T T"
Si       1.30008861       1.26304515       1.41226308       0.00000000
Si       1.20243006      -1.05958305      -1.73361020       0.00000000
Si      -0.89560791       1.64643030      -1.49528943       0.00000000
Si      -1.34901725      -1.51936830       1.35104533       0.00000000
Si      -0.96203853      -1.71685197      -2.51040132       0.00000000
Si      -1.46573999      -3.05649270      -0.57795017       0.00000000
Si      -2.43309232       0.26968095      -2.61847302       0.00000000
Si      -0.21548412       2.44415160       2.76256889       0.00000000
Si       2.52369567      -0.28453743       2.75197800       0.00000000
Si       2.72399751       2.63355543      -0.03728268       0.00000000
