10
Lattice="16.28999089631971 0.0 0.0 0.0 16.28999089631971 0.0 0.0 0.0 34.33025523377368" Properties=species:S:1:pos:R:3:initial_magmoms:R:1 pbc="T T T"
Si       1.34999643       1.36405944       1.39009461       0.00000000
Si      -1.36284147      -1.34931699       1.39256639       0.00000000
Si      -1.36337904       1.43940069      -1.33789199       0.00000000
Si       1.49646308      -1.24647822      -1.57533047       0.00000000
Si       2.70231892      -2.68882740       0.01409944       0.00000000
Si      -2.70593568      -2.71536381       0.00005150       0.00000000
Si       2.73206446       2.70775638       0.02748825       0.00000000
Si      -0.00388816      -2.70534546       2.75249155       0.00000000
Si       2.71181599       0.00993690       2.75183927       0.00000000
Si      -2.72579319       2.73991432       0.02730630       0.00000000
