10
Lattice="16.28999089631971 0.0 0.0 0.0 16.28999089631971 0.0 0.0 0.0 34.33025523377368" Properties=species:S:1:pos:R:3:initial_magmoms:R:1 pbc="T T T"
Si      -1.23418579      -0.91134405      -1.86400143       0.00000000
Si       1.20585585      -1.44234918       1.58942991       0.00000000
Si      -1.49646308       1.24647822       1.57533047       0.00000000
Si       1.57555740       1.42122105      -1.38461347       0.00000000
Si       0.52573206      -2.24007048      -2.66842842       0.00000000
Si      -1.24691642       1.03465935      -3.28558376       0.00000000
Si       2.72142858      -2.62345563       0.23912409       0.00000000
Si       2.74604277       2.72275947       0.13214409       0.00000000
Si       2.56714599      -0.10160073       2.96885810       0.00000000
Si      -2.85984212       2.68587891       0.23743848       0.00000000
