10
Lattice="16.28999089631971 0.0 0.0 0.0 16.28999089631971 0.0 0.0 0.0 34.33025523377368" Properties=species:S:1:pos:R:3:initial_magmoms:R:1 pbc="T T T"
Si       2.06589780      -0.21667329      -1.05744111       0.00000000
Si      -1.38771415      -1.85666904      -0.29874205       0.00000000
Si       0.16583220       0.04973337       2.34705787       0.00000000
Si      -0.86868054       2.00639762      -0.97075717       0.00000000
Si      -1.60458292       2.92497443       1.10313471       0.00000000
Si       2.71736748       2.01405392      -1.52532842       0.00000000
Si      -1.44630928       1.65890097       3.06260378       0.00000000
Si      -0.07529238      -3.84173586      -0.37461195       0.00000000
Si      -2.34994816      -1.85126076      -2.45276079       0.00000000
Si       0.48795066      -2.16606501       3.20994932       0.00000000
