10
Lattice="16.28999089631971 0.0 0.0 0.0 16.28999089631971 0.0 0.0 0.0 34.36671206372826" Properties=species:S:1:pos:R:3:initial_magmoms:R:1 pbc="T T T"
Si       1.37228589      -1.28484103      -1.37346985       0.00000000
Si       1.36684503       1.34124448       1.36499158       0.00000000
Si      -1.34668941      -1.37402878       1.36657245       0.00000000
Si      -1.30305176       1.42868920      -1.44813158       0.00000000
Si       0.65801826       2.22474892      -2.42160086       0.00000000
Si      -0.53941077      -2.17872220      -2.61732489       0.00000000
Si      -2.70687697       2.70781258      -0.00773595       0.00000000
Si       0.00807984       2.70302332       2.72629217       0.00000000
Si      -2.70702280      -0.01330991       2.72615470       0.00000000
Si       2.70581787      -2.74305667      -0.00387657       0.00000000
