10
Lattice="16.28999089631971 0.0 0.0 0.0 16.28999089631971 0.0 0.0 0.0 34.36671206372826" Properties=species:S:1:pos:R:3:initial_magmoms:R:1 pbc="T T T"
Si       1.35552348      -1.35865605      -1.36130059       0.00000000
Si      -1.34952224      -1.36607614       1.36205666       0.00000000
Si      -1.36019219       1.35775521      -1.36133496       0.00000000
Si       1.36533006       1.35127179       1.38429194       0.00000000
Si      -0.20375532       2.60367957       2.69703234       0.00000000
Si       2.71536381       2.71531494      -0.00264624       0.00000000
Si      -2.71579252       2.71645524      -0.00776688       0.00000000
Si       2.71459818      -0.00063531      -2.71816788       0.00000000
Si       2.71451673      -2.71837508      -0.00360851       0.00000000
Si      -0.00146610       2.71458189      -2.71888958       0.00000000
