10
Lattice="16.28999089631971 0.0 0.0 0.0 16.28999089631971 0.0 0.0 0.0 34.36671206372826" Properties=species:S:1:pos:R:3:initial_magmoms:R:1 pbc="T T T"
Si       0.46838963       2.11132151       0.77112072       0.00000000
Si       0.97442219      -1.71413154       1.18513673       0.00000000
Si      -2.23790784      -0.38895633       0.59543799       0.00000000
Si       0.37720798      -0.25420545      -2.32422204       0.00000000
Si      -0.51637834      -3.45289356       0.54450649       0.00000000
Si      -3.09722163       1.72967336      -0.08392356       0.00000000
Si      -2.56690068      -2.54097936      -0.35139983       0.00000000
Si      -1.77277947      -0.55690623      -3.15314759       0.00000000
Si       2.48147525       2.71183281      -0.26675457       0.00000000
Si       1.74399437      -2.19758616      -2.41673728       0.00000000
