10
Lattice="16.28999089631971 0.0 0.0 0.0 16.28999089631971 0.0 0.0 0.0 34.36671206372826" Properties=species:S:1:pos:R:3:initial_magmoms:R:1 pbc="T T T"
Si      -1.40167305       1.35136953      -1.22622216       0.00000000
Si       1.31747004       1.36624230       1.36185390       0.00000000
Si      -1.39075875      -1.35720135       1.35333095       0.00000000
Si       1.87825329      -0.76347972      -1.37318461       0.00000000
Si      -2.09958552      -0.47369691      -2.43326149       0.00000000
Si       2.66857893      -2.67161262       0.00307926       0.00000000
Si       2.68027515       0.00215028       2.71305067       0.00000000
Si       2.67761988       2.71982727      -0.01652009       0.00000000
Si       0.88598052      -1.08923574      -3.57030270       0.00000000
Si      -0.03505608      -2.71127872       2.71487211       0.00000000
