10
Lattice="16.28999089631971 0.0 0.0 0.0 16.28999089631971 0.0 0.0 0.0 34.36671206372826" Properties=species:S:1:pos:R:3:initial_magmoms:R:1 pbc="T T T"
Si       1.13191065      -0.35769663       2.02639994       0.00000000
Si      -2.31557463      -0.01647734       0.44027219       0.00000000
Si       1.33641531       1.60082319      -1.25696320       0.00000000
Si      -0.72860283      -1.94626634      -1.38532294       0.00000000
Si       0.44603649      -0.23936852      -2.68122364       0.00000000
Si      -1.88061534      -1.98726827       1.69795709       0.00000000
Si      -0.37445823       3.20258631      -1.22400550       0.00000000
Si       0.73065537       1.86477006       2.82422361       0.00000000
Si      -0.71861706      -3.64422191       0.44642384       0.00000000
Si      -0.20518884      -1.75648784       3.42172360       0.00000000
