10
Lattice="16.28999089631971 0.0 0.0 0.0 16.28999089631971 0.0 0.0 0.0 34.36671206372826" Properties=species:S:1:pos:R:3:initial_magmoms:R:1 pbc="T T T"
Si      -1.20176217      -0.36331980      -1.94601616       0.00000000
Si       0.40493682      -1.83661998       1.39116528       0.00000000
Si       2.16129204       0.50908856      -0.74101546       0.00000000
Si      -1.64796156       1.02438688       1.35587065       0.00000000
Si      -3.24430011      -0.67882452       1.17513601       0.00000000
Si       0.88391169      -0.68076303       3.38268299       0.00000000
Si      -1.86787656      -2.52316203       1.77865018       0.00000000
Si      -3.42275706      -0.94327638      -1.17455177       0.00000000
Si       3.39079608       1.21795769       1.11812160       0.00000000
Si      -1.07279424       0.63270197       3.62098191       0.00000000
