10
Lattice="16.28999089631971 0.0 0.0 0.0 16.28999089631971 0.0 0.0 0.0 34.36671206372826" Properties=species:S:1:pos:R:3:initial_magmoms:R:1 pbc="T T T"
Si       1.12782186       0.97376733       1.84081959       0.00000000
Si       1.77153750      -1.26934612      -1.03412931       0.00000000
Si      -1.43269573       1.67643648      -1.19073851       0.00000000
Si      -1.58195937      -1.95539133       0.34411408       0.00000000
Si      -2.36945285       0.00446346      -2.43742605       0.00000000
Si       2.08687932      -1.08217891       2.52640152       0.00000000
Si       0.43756569      -2.66115788      -2.43539841       0.00000000
Si       0.19828188       2.67887421      -2.46027992       0.00000000
Si      -0.57987513       2.02083966       3.09496472       0.00000000
Si       0.20911473      -2.47034429       2.98354778       0.00000000
