10
Lattice="16.28999089631971 0.0 0.0 0.0 16.28999089631971 0.0 0.0 0.0 34.36671206372826" Properties=species:S:1:pos:R:3:initial_magmoms:R:1 pbc="T T T"
Si       1.04155002       1.69828137      -1.17444867       0.00000000
Si      -1.37463165       0.70115418       1.73325172       0.00000000
Si      -1.14709293      -1.21761560      -1.70826711       0.00000000
Si       2.57963553      -1.30149607       0.56808207       0.00000000
Si       0.85219506       1.73947878       2.22978226       0.00000000
Si      -2.28582909      -1.69882546       1.49247841       0.00000000
Si       1.53552798      -0.69042396       2.80229763       0.00000000
Si       2.26515708       2.75041989       0.65413636       0.00000000
Si       2.44630188       0.45897075      -2.66565551       0.00000000
Si      -0.67543227       2.95920882      -2.07664410       0.00000000
