10
Lattice="16.28999089631971 0.0 0.0 0.0 16.28999089631971 0.0 0.0 0.0 34.36671206372826" Properties=species:S:1:pos:R:3:initial_magmoms:R:1 pbc="T T T"
Si      -1.70769699       1.04707233       1.25414512       0.00000000
Si      -1.12782186      -0.97376733      -1.84081959       0.00000000
Si       0.95905746      -2.05594624       0.68558192       0.00000000
Si       2.11188447       1.23841467       0.31954187       0.00000000
Si       2.17155474       0.51100101       2.53344670       0.00000000
Si       0.64371564      -2.24311345      -2.87494890       0.00000000
Si      -0.91870713      -3.44411162       1.14272818       0.00000000
Si       0.34573896      -0.32096187       3.73982206       0.00000000
Si      -1.81677646       3.40635303       0.62447787       0.00000000
Si      -3.79828133      -0.19034865       1.02839007       0.00000000
