10
Lattice="16.28999089631971 0.0 0.0 0.0 16.28999089631971 0.0 0.0 0.0 34.36671206372826" Properties=species:S:1:pos:R:3:initial_magmoms:R:1 pbc="T T T"
Si      -1.41296202      -1.01094111       1.57564590       0.00000000
Si       2.08065654      -0.86983713      -0.79730817       0.00000000
Si      -1.22360706      -1.05213852      -1.82858504       0.00000000
Si       0.36186606       2.51789643       0.32490308       0.00000000
Si      -2.26515708      -2.75041989      -0.65413636       0.00000000
Si      -2.09706057       0.63974088       3.13374383       0.00000000
Si       2.54106081       0.18176382      -2.91185877       0.00000000
Si       1.82882943      -2.97180099      -1.79683018       0.00000000
Si       2.50025436       2.99832111      -0.60100540       0.00000000
Si      -2.94058935       0.20878893      -2.73078047       0.00000000
