10
Lattice="16.28999089631971 0.0 0.0 0.0 16.28999089631971 0.0 0.0 0.0 34.36671206372826" Properties=species:S:1:pos:R:3:initial_magmoms:R:1 pbc="T T T"
Si       1.35506736      -1.35376416      -1.35851689       0.00000000
Si      -1.35711990      -1.35659862       1.35545825       0.00000000
Si       1.35702216       1.35855342       1.35528641       0.00000000
Si      -1.35746199       1.36115982      -1.36078509       0.00000000
Si      -0.00017919      -2.71334385       2.71225680       0.00000000
Si      -2.71445157       0.00094482       2.71270357       0.00000000
Si       2.71296918      -2.71490769      -0.00285244       0.00000000
Si       2.71500543       0.00050499       2.71363147       0.00000000
Si      -2.71547784      -2.71321353      -0.00182144       0.00000000
Si      -0.00001629       2.71578735       2.71311597       0.00000000
