10
Lattice="16.28999089631971 0.0 0.0 0.0 16.28999089631971 0.0 0.0 0.0 34.36671206372826" Properties=species:S:1:pos:R:3:initial_magmoms:R:1 pbc="T T T"
Si       1.25822331      -1.84114467      -0.78277104       0.00000000
Si      -0.26775873      -0.20535174       2.34054623       0.00000000
Si       1.45885095       1.63216026      -0.90405123       0.00000000
Si      -1.96690347      -0.24130377      -1.30150248       0.00000000
Si       1.57340223       0.66821580      -3.03090513       0.00000000
Si      -2.19164031       1.16765091       2.59592541       0.00000000
Si      -2.55554262      -2.53226421      -0.94195774       0.00000000
Si       3.44574225      -1.48734216       0.13636719       0.00000000
Si       3.14548497       1.96858134       0.69049636       0.00000000
Si      -1.04236452      -2.36055132       2.94309813       0.00000000
