10
Lattice="16.28999089631971 0.0 0.0 0.0 16.28999089631971 0.0 0.0 0.0 34.36671206372826" Properties=species:S:1:pos:R:3:initial_magmoms:R:1 pbc="T T T"
Si      -1.79958888      -1.06306911       1.18134405       0.00000000
Si       0.91463463       1.76003676       1.35632570       0.00000000
Si       1.74570156      -1.78382016      -0.21118356       0.00000000
Si      -0.34507107      -2.17062621       2.72017631       0.00000000
Si       2.37667842       0.54794673       2.73233182       0.00000000
Si       3.48871527      -0.95329080       1.29753110       0.00000000
Si       1.00924695      -3.50129115       1.28103163       0.00000000
Si      -1.90480599      -0.31830660      -3.42340757       0.00000000
Si      -2.65843026      -2.98506105      -0.17258972       0.00000000
Si       1.78520481       3.67833087       0.16677801       0.00000000
