10
Lattice="16.28999089631971 0.0 0.0 0.0 16.28999089631971 0.0 0.0 0.0 34.36671206372826" Properties=species:S:1:pos:R:3:initial_magmoms:R:1 pbc="T T T"
Si       1.35703845      -1.35723393      -1.35782955       0.00000000
Si       1.35692442       1.35874890       1.35672982       0.00000000
Si      -1.35734796      -1.35876519       1.35727968       0.00000000
Si      -1.35755973       1.35755973      -1.35851689       0.00000000
Si       0.00081450       2.71196876       2.71431880       0.00000000
Si      -2.71329498      -0.00008145       2.71548727       0.00000000
Si       0.00001629      -2.71578735      -2.71311597       0.00000000
Si      -2.71443528      -2.71484253      -0.00041240       0.00000000
Si      -2.71458189       2.71472542      -0.00030930       0.00000000
Si       0.00337203      -2.71529865       2.71400950       0.00000000
