10
Lattice="16.28999089631971 0.0 0.0 0.0 16.28999089631971 0.0 0.0 0.0 34.36671206372826" Properties=species:S:1:pos:R:3:initial_magmoms:R:1 pbc="T T T"
Si       1.20176217       0.36331980       1.94601616       0.00000000
Si       1.20295134      -1.26610767      -1.61049376       0.00000000
Si      -0.03451851       2.01232718      -1.30335828       0.00000000
Si      -2.22099489      -0.57995658       0.77146438       0.00000000
Si      -0.44619939       1.38770667       3.30188681       0.00000000
Si       3.36305421       0.87240836       1.20500070       0.00000000
Si      -0.47247516      -1.49688810      -3.33426027       0.00000000
Si      -3.54910230       1.15435894      -0.08254889       0.00000000
Si      -2.04253794      -0.31550472       3.12115217       0.00000000
Si      -1.98801531       1.63578220      -2.72291049       0.00000000
