10
Lattice="16.28999089631971 0.0 0.0 0.0 16.28999089631971 0.0 0.0 0.0 34.36671206372826" Properties=species:S:1:pos:R:3:initial_magmoms:R:1 pbc="T T T"
Si      -0.40493682       1.83661998      -1.39116528       0.00000000
Si       0.47897487       1.15585695       1.99151771       0.00000000
Si       1.81773594      -1.42060203      -0.65255549       0.00000000
Si      -2.27281338      -0.68654205       0.38748490       0.00000000
Si      -2.05289838       2.86100685      -0.03529463       0.00000000
Si       0.94970700      -3.46061502      -0.00635785       0.00000000
Si       1.75635522       2.34570854      -2.13218074       0.00000000
Si      -1.47773106       2.46932195       2.22981662       0.00000000
Si      -3.64923693       1.15779546      -0.21602927       0.00000000
Si       2.62234791       2.13539650       1.82889434       0.00000000
