10
Lattice="16.28999089631971 0.0 0.0 0.0 16.28999089631971 0.0 0.0 0.0 34.36671206372826" Properties=species:S:1:pos:R:3:initial_magmoms:R:1 pbc="T T T"
Si      -1.35397593      -1.34688815       1.37095077       0.00000000
Si       1.35422028       1.37591856       1.36699860       0.00000000
Si      -1.66641813       1.06854255      -1.32207097       0.00000000
Si       1.41185430      -1.31232729      -1.50850361       0.00000000
Si       0.08773794       2.00124279      -2.70983879       0.00000000
Si       2.18610171       0.57355461      -2.73499524       0.00000000
Si      -0.37719495      -2.49753230      -2.73207407       0.00000000
Si      -2.72873790      -2.65915077       0.01166063       0.00000000
Si       2.71920825      -2.69888552      -0.02372679       0.00000000
Si      -0.00540828      -2.69815673       2.72554985       0.00000000
