10
Lattice="16.28999089631971 0.0 0.0 0.0 16.28999089631971 0.0 0.0 0.0 34.36671206372826" Properties=species:S:1:pos:R:3:initial_magmoms:R:1 pbc="T T T"
Si       0.71622243       1.91409129       1.10368757       0.00000000
Si       1.27454589      -1.38885445      -1.40869231       0.00000000
Si      -1.80931401      -0.72614304       1.33404777       0.00000000
Si      -1.43084844       1.33108848      -1.42666612       0.00000000
Si       2.47795335      -2.74021800       0.20595982       0.00000000
Si      -2.69969283      -2.56633475      -0.09021267       0.00000000
Si       2.63925693       2.75053392      -0.04323335       0.00000000
Si      -2.72495862       2.67235821       0.02357558       0.00000000
Si       2.63485863      -0.02153538      -2.78628274       0.00000000
Si      -0.08374689       2.68636761      -2.78580160       0.00000000
