10
Lattice="16.28999089631971 0.0 0.0 0.0 16.28999089631971 0.0 0.0 0.0 34.36671206372826" Properties=species:S:1:pos:R:3:initial_magmoms:R:1 pbc="T T T"
Si      -0.46838963      -2.11132151      -0.77112072       0.00000000
Si       0.87434946       0.11930144       2.16287023       0.00000000
Si       2.01308562       0.60051130      -1.03787528       0.00000000
Si      -1.92641372       1.32046740      -0.34205208       0.00000000
Si      -0.93780064       2.56215636      -2.09685174       0.00000000
Si      -1.88207234       2.38953123       1.83092198       0.00000000
Si       1.03954635       1.53883485      -3.02891186       0.00000000
Si      -1.10770045       0.60167930       3.34683849       0.00000000
Si      -3.56561126      -0.38164815      -0.85504427       0.00000000
Si      -2.70629747      -2.50027784      -0.17568273       0.00000000
