10
Lattice="16.28999089631971 0.0 0.0 0.0 16.28999089631971 0.0 0.0 0.0 34.36671206372826" Properties=species:S:1:pos:R:3:initial_magmoms:R:1 pbc="T T T"
Si       1.35628911       1.35581670      -1.35813885       0.00000000
Si       1.35664749      -1.35707103       1.35659235       0.00000000
Si      -1.35837423       1.35765747       1.35669545       0.00000000
Si      -1.35829278      -1.35830907      -1.36002902       0.00000000
Si       2.71220355      -0.00024435       2.71356273       0.00000000
Si       2.71296918       0.00299736      -2.71466247       0.00000000
Si      -0.00159642      -2.71429519       2.71421570       0.00000000
Si       2.71453302       2.71451673      -0.00010310       0.00000000
Si      -0.00206883       2.71477737       2.71473120       0.00000000
Si       2.71393029      -2.71584274      -0.00017183       0.00000000
