10
Lattice="16.28999089631971 0.0 0.0 0.0 16.28999089631971 0.0 0.0 0.0 34.36671206372826" Properties=species:S:1:pos:R:3:initial_magmoms:R:1 pbc="T T T"
Si       1.34278470       1.33581258       1.36590573       0.00000000
Si      -1.36006839       1.35433431      -1.35549261       0.00000000
Si       1.35571896      -1.35990549      -1.35463345       0.00000000
Si      -1.35918873      -1.37513664       1.37552842       0.00000000
Si       2.63194272      -0.14651226       2.69576077       0.00000000
Si      -0.06063138       2.52353277       2.88646176       0.00000000
Si      -0.00068418       2.71261080      -2.71153510       0.00000000
Si      -2.71233387       2.71259451       0.00195890       0.00000000
Si       2.71393029      -0.00156384      -2.71294413       0.00000000
Si      -2.71586880      -0.00123804      -2.71290977       0.00000000
