10
Lattice="16.28999089631971 0.0 0.0 0.0 16.28999089631971 0.0 0.0 0.0 34.36671206372826" Properties=species:S:1:pos:R:3:initial_magmoms:R:1 pbc="T T T"
Si       1.45598391      -1.20674691      -1.34769137       0.00000000
Si       1.00361061       1.69308486       1.30308335       0.00000000
Si      -0.85626756      -1.57358142       1.55402922       0.00000000
Si      -1.28915802       1.48232484      -1.32985503       0.00000000
Si      -2.55958254      -2.58869277       0.11708745       0.00000000
Si       0.88159851      -3.34695969       1.19719945       0.00000000
Si      -0.63793269       3.45590721       1.05870152       0.00000000
Si       0.08162919      -2.57468337      -2.69228973       0.00000000
Si       2.80463301      -2.51051706       0.05027853       0.00000000
Si      -2.63194272       0.14651226      -2.69576077       0.00000000
