10
Lattice="16.28999089631971 0.0 0.0 0.0 16.28999089631971 0.0 0.0 0.0 34.36671206372826" Properties=species:S:1:pos:R:3:initial_magmoms:R:1 pbc="T T T"
Si      -0.19039752       1.17701766       2.06111034       0.00000000
Si       1.78833249       1.06192881      -1.18094399       0.00000000
Si      -1.95009219       0.61172208      -1.24723741       0.00000000
Si       0.21230757      -2.35269954       0.43061514       0.00000000
Si       0.78547122       3.17488842      -1.32992377       0.00000000
Si       1.60769268       0.26466363       3.29209229       0.00000000
Si      -1.48546881       2.81072547      -1.92972633       0.00000000
Si      -1.74480561      -3.32452836      -0.54357859       0.00000000
Si      -2.27781441       0.61937838       3.02004524       0.00000000
Si      -2.03626629      -0.53501247      -3.27267509       0.00000000
