10
Lattice="16.28999089631971 0.0 0.0 0.0 16.28999089631971 0.0 0.0 0.0 34.36671206372826" Properties=species:S:1:pos:R:3:initial_magmoms:R:1 pbc="T T T"
Si      -0.44228979      -0.44966916       2.29418551       0.00000000
Si       2.08047735      -0.91849536      -0.70314332       0.00000000
Si      -1.95711318      -0.97182882      -0.97419373       0.00000000
Si      -0.21230757       2.35269954      -0.43061514       0.00000000
Si      -2.51198316       0.60937632       2.59482568       0.00000000
Si      -1.15186590      -3.13248555      -1.52248056       0.00000000
Si      -3.63032424      -0.43479639       0.77703179       0.00000000
Si       3.72669588      -0.10103058       0.69781648       0.00000000
Si      -1.15409763      -2.71083519       2.54258825       0.00000000
Si       2.56922622      -0.18792144      -2.93842426       0.00000000
