10
Lattice="16.28999089631971 0.0 0.0 0.0 16.28999089631971 0.0 0.0 0.0 34.36671206372826" Properties=species:S:1:pos:R:3:initial_magmoms:R:1 pbc="T T T"
Si      -0.06266763       0.45385569       2.31624895       0.00000000
Si      -0.02186118      -2.36270160       0.00539558       0.00000000
Si      -1.54746855       1.26578187      -1.25981563       0.00000000
Si       2.08741689       0.55763928      -0.95893490       0.00000000
Si       1.78786008      -0.84563019       2.95581382       0.00000000
Si       1.88799471       2.92319163      -0.94154534       0.00000000
Si      -0.41101299       3.31102395      -1.45601530       0.00000000
Si      -1.81455939       0.12442302      -3.29917184       0.00000000
Si       2.27781441      -0.61937838      -3.02004524       0.00000000
Si       3.88550709      -0.35471475       0.27204704       0.00000000
