10
Lattice="16.28999089631971 0.0 0.0 0.0 16.28999089631971 0.0 0.0 0.0 34.36671206372826" Properties=species:S:1:pos:R:3:initial_magmoms:R:1 pbc="T T T"
Si      -1.33931493      -1.34996859       1.38045661       0.00000000
Si       1.37673306       1.36339155       1.37994111       0.00000000
Si       1.24106994      -1.49934789      -1.40590861       0.00000000
Si      -1.58314365       1.21793814      -1.40788813       0.00000000
Si      -2.70365130      -2.70637173       0.00881850       0.00000000
Si      -2.69518050       2.71917567       0.02691259       0.00000000
Si       2.71329498      -2.70964602       0.02995061       0.00000000
Si       2.72842839       2.70977634       0.00155681       0.00000000
Si      -2.70321147       0.00614133       2.73976393       0.00000000
Si       0.01358586      -2.70992295       2.74027943       0.00000000
