10
Lattice="16.28999089631971 0.0 0.0 0.0 16.28999089631971 0.0 0.0 0.0 34.36671206372826" Properties=species:S:1:pos:R:3:initial_magmoms:R:1 pbc="T T T"
Si      -0.08026083       1.45062450       1.82109309       0.00000000
Si       0.77177133       2.08047735      -0.78603588       0.00000000
Si      -2.05464141      -0.78586218      -0.86800053       0.00000000
Si       1.64154330      -1.76282235       0.24438183       0.00000000
Si      -0.65122533      -1.97358237      -2.38855656       0.00000000
Si       2.07839223       0.76621644      -2.37333209       0.00000000
Si      -1.40157531       0.42394725       3.31872651       0.00000000
Si       3.54278178      -0.47346885      -0.82724159       0.00000000
Si       0.63793269      -3.45590721      -1.05870152       0.00000000
Si       1.60896330      -2.26942506       2.62359063       0.00000000
