10
Lattice="16.28999089631971 0.0 0.0 0.0 16.28999089631971 0.0 0.0 0.0 34.36671206372826" Properties=species:S:1:pos:R:3:initial_magmoms:R:1 pbc="T T T"
Si       1.78473240      -0.27227106       1.50756540       0.00000000
Si      -1.69222149       1.49400477       0.71898638       0.00000000
Si       1.23585714       0.84338217      -1.87432716       0.00000000
Si      -1.39196421      -1.96191873       0.16485721       0.00000000
Si       1.56297663      -1.35190710      -2.74882300       0.00000000
Si      -1.56664188      -1.88742456       2.56317392       0.00000000
Si       1.79563041       2.00986020       2.30982238       0.00000000
Si       0.70429815      -1.52326161       3.16297648       0.00000000
Si      -3.37885551       1.15758369      -0.87556121       0.00000000
Si       3.25941723      -1.93280850       0.42896554       0.00000000
