10
Lattice="16.28999089631971 0.0 0.0 0.0 16.28999089631971 0.0 0.0 0.0 34.36671206372826" Properties=species:S:1:pos:R:3:initial_magmoms:R:1 pbc="T T T"
Si      -1.13645556      -2.04524208       0.19619967       0.00000000
Si      -0.93349845       1.37358909       1.70943558       0.00000000
Si       2.29900770      -0.38783232       0.51446997       0.00000000
Si      -0.28688319       0.35921079      -2.38920952       0.00000000
Si       0.41101299      -3.31102395       1.45601530       0.00000000
Si      -3.28636089      -1.35946566       0.89394741       0.00000000
Si      -3.25298268       0.94850154       1.49883625       0.00000000
Si       2.49842988      -2.75338467       0.49708040       0.00000000
Si       3.54529044       0.67553001      -1.11052655       0.00000000
Si       1.20335859      -1.11967686      -3.49375627       0.00000000
