10
Lattice="16.28999089631971 0.0 0.0 0.0 16.28999089631971 0.0 0.0 0.0 34.36671206372826" Properties=species:S:1:pos:R:3:initial_magmoms:R:1 pbc="T T T"
Si      -1.35022923      -1.34664543       1.36851073       0.00000000
Si       1.36725228       1.36638891       1.36363066       0.00000000
Si      -1.41674130       1.39553172      -1.32010519       0.00000000
Si       1.07797446      -1.60845831      -1.40632788       0.00000000
Si       2.57566077      -0.36642726      -2.62443468       0.00000000
Si      -2.70010008      -2.70977634       0.01311091       0.00000000
Si      -2.70528030       0.00667890       2.72695889       0.00000000
Si       0.00874773      -2.70676269       2.72589352       0.00000000
Si       2.72350881      -2.71917567      -0.01224487       0.00000000
Si       2.72549619       0.00781920       2.72689015       0.00000000
