10
Lattice="16.28999089631971 0.0 0.0 0.0 16.28999089631971 0.0 0.0 0.0 34.36671206372826" Properties=species:S:1:pos:R:3:initial_magmoms:R:1 pbc="T T T"
Si       1.37388231      -1.35829278      -1.24025753       0.00000000
Si      -1.33295857      -1.34539110       1.34761232       0.00000000
Si      -1.35282586       1.26931680      -1.44733427       0.00000000
Si       1.38772881       1.36793646       1.34286971       0.00000000
Si       2.29410441       0.28168668      -2.59875551       0.00000000
Si       0.42653736       1.90270458      -2.91738292       0.00000000
Si      -2.68892539      -2.70029556      -0.03343196       0.00000000
Si      -2.68976352       0.00821016       2.70186774       0.00000000
Si      -2.66817887       2.72433960      -0.02188130       0.00000000
Si       0.02603142      -2.70508482       2.70059617       0.00000000
