10
Lattice="16.28999089631971 0.0 0.0 0.0 16.28999089631971 0.0 0.0 0.0 34.36671206372826" Properties=species:S:1:pos:R:3:initial_magmoms:R:1 pbc="T T T"
Si       0.77424741       1.88588190      -1.22649163       0.00000000
Si       1.30735395      -1.38655823       1.48477682       0.00000000
Si      -1.41185430       1.31232729       1.50850361       0.00000000
Si      -1.78904925      -1.18520501      -1.22357046       0.00000000
Si       2.56381794       2.67127167       0.11993646       0.00000000
Si      -1.32411636       3.31357008      -1.20133518       0.00000000
Si      -0.90137457      -1.53210938      -3.39073653       0.00000000
Si       2.52092637      -2.91671051       0.03755940       0.00000000
Si      -3.07827243       2.38086984       0.18643264       0.00000000
Si       2.66098779      -0.03257837       2.87024410       0.00000000
