10
Lattice="16.28999089631971 0.0 0.0 0.0 16.28999089631971 0.0 0.0 0.0 34.36671206372826" Properties=species:S:1:pos:R:3:initial_magmoms:R:1 pbc="T T T"
Si      -1.27454589       1.38885445       1.40869231       0.00000000
Si      -1.35659862      -1.35485774      -1.37515039       0.00000000
Si       1.36031274       1.36731907      -1.37759042       0.00000000
Si       1.20340746      -1.35136355       1.61465214       0.00000000
Si       2.68584633      -2.67568693      -0.01044749       0.00000000
Si      -2.70166392      -2.70940723       0.01168469       0.00000000
Si       2.70627399       2.71456723      -0.01546503       0.00000000
Si      -2.70539433       2.71994293      -0.01797380       0.00000000
Si       0.00289962      -2.70645874      -2.73631351       0.00000000
Si      -2.71567332       0.00743964      -2.73572928       0.00000000
