10
Lattice="16.28999089631971 0.0 0.0 0.0 16.28999089631971 0.0 0.0 0.0 34.36671206372826" Properties=species:S:1:pos:R:3:initial_magmoms:R:1 pbc="T T T"
Si      -1.20340746       1.35136355      -1.61465214       0.00000000
Si      -0.73896327      -1.91757259       1.38432630       0.00000000
Si       1.51563789       1.43302532       1.34827560       0.00000000
Si       1.48243887      -1.32432337      -1.62509962       0.00000000
Si      -2.47795335       2.74021800      -0.20595982       0.00000000
Si      -2.50949079      -2.75233735      -0.02680605       0.00000000
Si       2.79774234      -2.58432229      -0.18970436       0.00000000
Si       2.81382057       2.64529617      -0.26946954       0.00000000
Si      -2.56000608      -0.00349419      -2.98980252       0.00000000
Si       1.26387594      -3.52221904       1.40309054       0.00000000
