10
Lattice="16.28999089631971 0.0 0.0 0.0 16.28999089631971 0.0 0.0 0.0 34.36671206372826" Properties=species:S:1:pos:R:3:initial_magmoms:R:1 pbc="T T T"
Si      -0.99729009       1.96792974      -0.78524544       0.00000000
Si       0.82655460      -0.87397642      -2.10334705       0.00000000
Si      -1.37145510      -1.29605846       1.62259085       0.00000000
Si       1.82373066       1.11724965       1.58554351       0.00000000
Si      -1.61632638       2.53982277       1.38735057       0.00000000
Si       2.91223076      -1.62156036      -0.93955207       0.00000000
Si      -2.09631123       0.65544444       2.85944951       0.00000000
Si       1.43988939      -0.55175859       3.30089017       0.00000000
Si       0.59880411       3.09876525       2.04966622       0.00000000
Si       0.35541522      -2.58519761       2.72339162       0.00000000
