10
Lattice="16.28999089631971 0.0 0.0 0.0 16.28999089631971 0.0 0.0 0.0 34.36671206372826" Properties=species:S:1:pos:R:3:initial_magmoms:R:1 pbc="T T T"
Si       1.56128247       0.20262316       1.74380231       0.00000000
Si       0.03748329      -1.86278661      -1.44972619       0.00000000
Si       0.57598182       1.61127485      -1.62643992       0.00000000
Si      -2.14808085       0.41288471       0.93350352       0.00000000
Si       1.08426240       2.62687490       1.75284076       0.00000000
Si      -3.37758489      -0.29598441      -0.92563354       0.00000000
Si      -2.20281525      -2.00579652      -2.10341579       0.00000000
Si       3.54022981      -0.78306682       0.79748000       0.00000000
Si       1.57301127       3.35744882      -0.48244017       0.00000000
Si       0.66828096      -3.68391087      -0.15770893       0.00000000
