10
Lattice="16.28999089631971 0.0 0.0 0.0 16.28999089631971 0.0 0.0 0.0 34.36671206372826" Properties=species:S:1:pos:R:3:initial_magmoms:R:1 pbc="T T T"
Si       1.92641372      -1.32046740       0.34205208       0.00000000
Si       0.98861308       1.24168896      -1.75479967       0.00000000
Si      -1.63919754      -1.70211555      -0.51299220       0.00000000
Si       0.04434138       1.06906383       2.17297405       0.00000000
Si       2.12609654       2.98372527      -0.62128177       0.00000000
Si       1.45802409      -3.43178891      -0.42906864       0.00000000
Si       2.06528597       2.60337006       1.82013082       0.00000000
Si       0.81871326      -0.71878810       3.68889057       0.00000000
Si      -0.77988375      -3.82074524       0.16636935       0.00000000
Si      -2.07270702       2.22128811       2.45801172       0.00000000
