10
Lattice="16.28999089631971 0.0 0.0 0.0 16.28999089631971 0.0 0.0 0.0 34.36671206372826" Properties=species:S:1:pos:R:3:initial_magmoms:R:1 pbc="T T T"
Si       0.85931379      -2.11862969       0.67936154       0.00000000
Si      -2.28369510       0.30948671       0.62897992       0.00000000
Si      -0.12233790      -0.49414202      -2.34470461       0.00000000
Si       1.63919754       1.70211555       0.51299220       0.00000000
Si       3.09722163      -1.72967336       0.08392356       0.00000000
Si      -2.32875324      -1.34210168      -2.43306147       0.00000000
Si       3.56561126       0.38164815       0.85504427       0.00000000
Si      -3.30980220      -1.62810521      -0.28015759       0.00000000
Si       0.63359955      -2.44623788       2.96189673       0.00000000
Si      -3.40009767       1.81174725      -0.78452374       0.00000000
