10
Lattice="16.28999089631971 0.0 0.0 0.0 16.28999089631971 0.0 0.0 0.0 34.36671206372826" Properties=species:S:1:pos:R:3:initial_magmoms:R:1 pbc="T T T"
Si       1.78957053       0.78538977       1.34642809       0.00000000
Si      -0.77424741      -1.88588190       1.22649163       0.00000000
Si       0.89772561       0.76372407      -2.18345590       0.00000000
Si      -2.09836377       1.42768818       0.02515645       0.00000000
Si      -2.03748804       1.28658420      -2.30236479       0.00000000
Si       0.51114762       2.15546022       2.74818863       0.00000000
Si      -2.18610171      -0.57355461       2.73499524       0.00000000
Si      -0.96107742       3.36575835       1.31232941       0.00000000
Si       2.66769927       2.64425796       0.21863912       0.00000000
Si       3.01477401      -0.38850021      -2.46849357       0.00000000
