10
Lattice="16.28999089631971 0.0 0.0 0.0 16.28999089631971 0.0 0.0 0.0 34.36671206372826" Properties=species:S:1:pos:R:3:initial_magmoms:R:1 pbc="T T T"
Si      -0.04434138      -1.06906383      -2.17297405       0.00000000
Si      -2.11704840       1.15222428       0.28503767       0.00000000
Si       0.77437188      -1.78785193       1.51591652       0.00000000
Si       2.02094459       1.53430623      -0.35284323       0.00000000
Si       1.88207234      -2.38953123      -1.83092198       0.00000000
Si      -1.10154609       3.35642418       0.47591049       0.00000000
Si       2.75642180      -2.27022979       0.33194826       0.00000000
Si       3.66761924       0.12974985       0.57272158       0.00000000
Si      -3.01477401       0.38850021       2.46849357       0.00000000
Si       2.08175516       1.91466144      -2.79425582       0.00000000
