10
Lattice="16.28999089631971 0.0 0.0 0.0 16.28999089631971 0.0 0.0 0.0 34.36671206372826" Properties=species:S:1:pos:R:3:initial_magmoms:R:1 pbc="T T T"
Si      -1.33675740      -1.35601218       1.34528570       0.00000000
Si      -1.35291708       1.35136953      -1.35941042       0.00000000
Si       1.36236528      -1.36344042      -1.35679855       0.00000000
Si       1.35560493       1.35369900       1.38862214       0.00000000
Si       2.48415984      -0.26699310       2.82900058       0.00000000
Si       0.01189170      -2.65978233       2.74325559       0.00000000
Si      -2.70850572       2.71160082       0.00474261       0.00000000
Si       0.00456120       2.71068858      -2.71507487       0.00000000
Si      -2.71075374      -0.00431685      -2.71572784       0.00000000
Si       2.72215839       2.71155195       0.00106537       0.00000000
