10
Lattice="16.28999089631971 0.0 0.0 0.0 16.28999089631971 0.0 0.0 0.0 34.36671206372826" Properties=species:S:1:pos:R:3:initial_magmoms:R:1 pbc="T T T"
Si       1.35065277      -1.35858600       1.36112876       0.00000000
Si       1.35169533       1.34638479      -1.37838429       0.00000000
Si      -1.36306575       1.35879777       1.35975409       0.00000000
Si      -1.37673306      -1.36339155      -1.37994111       0.00000000
Si      -0.29383902       2.45710215      -2.77246731       0.00000000
Si       2.70832653      -2.71388142      -0.00113410       0.00000000
Si       2.70967860       0.00130320       2.71778984       0.00000000
Si      -2.71604799      -2.71336014       0.00051550       0.00000000
Si       2.70982521       2.71997388       0.00247440       0.00000000
Si      -0.00490329      -2.71461447       2.71837408       0.00000000
