10
Lattice="16.28999089631971 0.0 0.0 0.0 16.28999089631971 0.0 0.0 0.0 34.36671206372826" Properties=species:S:1:pos:R:3:initial_magmoms:R:1 pbc="T T T"
Si       1.17313738      -1.47266487       1.34707277       0.00000000
Si      -1.33889982      -1.35988920      -1.35772645       0.00000000
Si       1.37565466       1.35467640      -1.35116241       0.00000000
Si      -1.57484619       1.09116936       1.47594801       0.00000000
Si       0.34521442       2.02321800       2.48481777       0.00000000
Si       2.15317636       0.31095981       2.45698072       0.00000000
Si      -0.45784022      -2.47510260       2.61661419       0.00000000
Si      -2.69664075      -0.00527796      -2.70985113       0.00000000
Si      -2.70340110       2.71186146       0.03556957       0.00000000
Si       0.01800208       2.71042794      -2.71071030       0.00000000
