10
Lattice="16.28999089631971 0.0 0.0 0.0 16.28999089631971 0.0 0.0 0.0 34.36671206372826" Properties=species:S:1:pos:R:3:initial_magmoms:R:1 pbc="T T T"
Si       0.26440299      -0.34098228      -2.35525519       0.00000000
Si      -1.40942709      -1.92306708       0.53656778       0.00000000
Si       2.24914957      -0.65663361       0.70345262       0.00000000
Si      -1.47468483       1.66053744       1.07859986       0.00000000
Si       1.16572154       2.37964320      -0.65633583       0.00000000
Si       2.34913433       1.09292868      -2.37116699       0.00000000
Si       0.18041175      -3.56202027       0.10017902       0.00000000
Si      -1.69644060       0.58090140      -3.17778854       0.00000000
Si      -1.55225781      -1.70341272       2.88299072       0.00000000
Si       3.28091093      -0.89023221      -1.44137508       0.00000000
