10
Lattice="16.28999089631971 0.0 0.0 0.0 16.28999089631971 0.0 0.0 0.0 34.36671206372826" Properties=species:S:1:pos:R:3:initial_magmoms:R:1 pbc="T T T"
Si       1.90373804      -0.99478143       1.06650277       0.00000000
Si       0.44110062       2.24326332      -0.75665232       0.00000000
Si      -1.14530103       1.48682088       1.54351579       0.00000000
Si      -1.65872925      -1.48312305      -1.22067193       0.00000000
Si      -1.98407313       2.43489888      -0.55327001       0.00000000
Si       0.50458275      -2.19916629       2.70255648       0.00000000
Si       3.16048384      -1.80722889      -1.12351718       0.00000000
Si      -2.64298734       0.24478983       2.76162259       0.00000000
Si       2.38834436      -0.49306572      -3.09011901       0.00000000
Si      -0.15288165      -3.05909910      -2.49076322       0.00000000
