10
Lattice="16.28999089631971 0.0 0.0 0.0 16.28999089631971 0.0 0.0 0.0 34.36671206372826" Properties=species:S:1:pos:R:3:initial_magmoms:R:1 pbc="T T T"
Si       0.29971971       0.22884192      -2.29006150       0.00000000
Si       2.14998745       0.30270078       0.82892556       0.00000000
Si      -0.70620408      -2.17720737       0.45838346       0.00000000
Si      -1.44678006       1.79243757       0.72451943       0.00000000
Si       0.96600256       2.48072495      -1.91639204       0.00000000
Si      -1.90594629      -0.42011910      -2.87158096       0.00000000
Si      -0.79412121      -1.98407313       2.80174777       0.00000000
Si       1.77277947       0.55690623       3.15314759       0.00000000
Si       2.90254310       2.22723512      -0.45370959       0.00000000
Si      -1.01294478       3.46641493      -0.97006972       0.00000000
