10
Lattice="16.28999089631971 0.0 0.0 0.0 16.28999089631971 0.0 0.0 0.0 34.36671206372826" Properties=species:S:1:pos:R:3:initial_magmoms:R:1 pbc="T T T"
Si      -1.37813074      -1.14116337       1.49883625       0.00000000
Si      -0.30195144      -0.26963208      -2.35635493       0.00000000
Si       1.75148451      -1.63766628       0.12932201       0.00000000
Si       0.38946132       2.15262576       1.05402765       0.00000000
Si      -2.88405395       1.26135099      -0.00976015       0.00000000
Si      -0.66714066      -0.29401821       3.54939601       0.00000000
Si      -1.18066336      -3.36878992       0.83167490       0.00000000
Si      -0.41103091       2.08964862      -2.98602218       0.00000000
Si       3.57730029      -0.80570340      -1.07705336       0.00000000
Si      -0.52598781       2.01131001       3.21311754       0.00000000
