10
Lattice="16.28999089631971 0.0 0.0 0.0 16.28999089631971 0.0 0.0 0.0 34.36671206372826" Properties=species:S:1:pos:R:3:initial_magmoms:R:1 pbc="T T T"
Si       1.31841486       0.53981802      -1.94440092       0.00000000
Si      -0.77836878      -2.28967353      -0.29115495       0.00000000
Si      -2.14062166       1.05117741      -0.65502990       0.00000000
Si       0.54346698       0.61579458       2.37041092       0.00000000
Si      -1.76898160       0.27600147      -2.87776698       0.00000000
Si      -1.12986951       3.19810167      -0.02924609       0.00000000
Si      -0.71755821      -1.90931832      -2.73256754       0.00000000
Si       1.29709125       3.28254903      -0.88040692       0.00000000
Si       2.41103403      -1.00522332       2.68903833       0.00000000
Si       1.56750525      -1.43617527      -3.17548597       0.00000000
