10
Lattice="16.28999089631971 0.0 0.0 0.0 16.28999089631971 0.0 0.0 0.0 34.36671206372826" Properties=species:S:1:pos:R:3:initial_magmoms:R:1 pbc="T T T"
Si       0.87317984       1.93725567      -1.07552679       0.00000000
Si      -1.10890591      -1.46844576      -1.55952588       0.00000000
Si      -1.30722756       1.37435472       1.53209981       0.00000000
Si       1.41808034      -1.33859817       1.51047970       0.00000000
Si      -1.26839348       2.96232021      -1.72668566       0.00000000
Si      -2.50806120      -2.67283062       0.07652784       0.00000000
Si      -2.78969901       2.57292405       0.07393315       0.00000000
Si      -2.65196706       0.03399723       2.91053565       0.00000000
Si       0.06362711      -2.68623729       2.90974522       0.00000000
Si       2.78487650       2.83113684       0.16832825       0.00000000
