10
Lattice="16.28999089631971 0.0 0.0 0.0 16.28999089631971 0.0 0.0 0.0 34.36671206372826" Properties=species:S:1:pos:R:3:initial_magmoms:R:1 pbc="T T T"
Si       1.35664859      -1.35679410      -1.35786392       0.00000000
Si       1.35698905       1.35733167       1.35731405       0.00000000
Si      -1.35735567       1.35749457      -1.35745152       0.00000000
Si      -1.35931047      -1.35814617       1.35769209       0.00000000
Si      -2.71357962       0.00001629      -2.71462810       0.00000000
Si       2.71396234      -0.00195480      -2.71449064       0.00000000
Si      -2.71524120      -2.71437012       0.00017183       0.00000000
Si       0.00235598      -2.71350675       2.71631207       0.00000000
Si      -2.71486653       2.71506363       0.00017183       0.00000000
Si       2.71521667       2.71480687       0.00010310       0.00000000
