10
Lattice="16.28999089631971 0.0 0.0 0.0 16.28999089631971 0.0 0.0 0.0 34.36671206372826" Properties=species:S:1:pos:R:3:initial_magmoms:R:1 pbc="T T T"
Si      -1.32773274       1.34941473       1.36002902       0.00000000
Si      -1.36285398      -1.34465805      -1.36432486       0.00000000
Si       1.35125550       1.36739216      -1.36549333       0.00000000
Si       1.23277833      -1.39111713       1.53275621       0.00000000
Si       2.70001863      -2.70852201       0.03467603       0.00000000
Si      -0.00690696      -2.70334179      -2.72253245       0.00000000
Si       2.69676063       2.73097845      -0.01735520       0.00000000
Si       2.70736542       0.01417230      -2.72308232       0.00000000
Si      -2.71278347       2.71969110       0.00017183       0.00000000
Si      -2.74124373      -2.70044217       0.01515573       0.00000000
