10
Lattice="16.28999089631971 0.0 0.0 0.0 16.28999089631971 0.0 0.0 0.0 34.36671206372826" Properties=species:S:1:pos:R:3:initial_magmoms:R:1 pbc="T T T"
Si       1.36285398       1.34465805       1.36432486       0.00000000
Si       1.35594702      -1.35868374      -1.35820759       0.00000000
Si      -1.35951453       1.35733167      -1.35858562       0.00000000
Si      -1.37838975      -1.35578412       1.37948059       0.00000000
Si       0.03512124       2.69407278       2.72435389       0.00000000
Si       2.71410948       2.71205021      -0.00116847       0.00000000
Si      -2.71414760      -2.71350675       0.00041240       0.00000000
Si       2.71329498       0.00008145      -2.71548727       0.00000000
Si      -0.00128691       2.71480687      -2.71579657       0.00000000
Si      -0.00114030      -2.71476108      -2.71589967       0.00000000
