10
Lattice="16.28999089631971 0.0 0.0 0.0 16.28999089631971 0.0 0.0 0.0 34.46413024517268" Properties=species:S:1:pos:R:3:initial_magmoms:R:1 pbc="T T T"
Si      -1.77614757      -0.94872960       1.16078702       0.00000000
Si      -0.27608292       2.24655390       0.69214351       0.00000000
Si       2.01432366      -1.24525647       0.40908945       0.00000000
Si      -0.61844985      -0.06449211      -2.33125846       0.00000000
Si       2.07783837      -2.09784249      -1.77617887       0.00000000
Si      -1.00584886      -0.17472654       3.38689536       0.00000000
Si      -3.50017433       0.47169324       0.34067812       0.00000000
Si       1.45946997      -0.42396354      -3.31886313       0.00000000
Si      -2.59021493       2.60754993      -0.13430679       0.00000000
Si      -0.02746494       2.24958384       3.00923721       0.00000000
