10
Lattice="16.28999089631971 0.0 0.0 0.0 16.28999089631971 0.0 0.0 0.0 34.46413024517268" Properties=species:S:1:pos:R:3:initial_magmoms:R:1 pbc="T T T"
Si       2.10551834       0.38789748      -0.74701044       0.00000000
Si      -2.04055449       0.78456845      -0.65716240       0.00000000
Si      -0.93941565       1.03754661       1.86882889       0.00000000
Si       1.12713442      -2.03641290      -0.36935229       0.00000000
Si       1.85690036       0.38486754      -3.06410414       0.00000000
Si      -1.82314815      -0.81223569       3.11192457       0.00000000
Si      -3.07801572      -0.93429666      -1.88346577       0.00000000
Si      -1.66531434       2.31724340      -2.45319263       0.00000000
Si       0.96431099       1.92924003       3.16681906       0.00000000
Si       0.35683571      -2.81041596      -2.59546064       0.00000000
