10
Lattice="16.28999089631971 0.0 0.0 0.0 16.28999089631971 0.0 0.0 0.0 34.46413024517268" Properties=species:S:1:pos:R:3:initial_magmoms:R:1 pbc="T T T"
Si       1.49208255       1.31429349      -1.38997503       0.00000000
Si      -1.23509151      -1.53375237      -1.44373911       0.00000000
Si       1.38202731      -1.29169926       1.55718333       0.00000000
Si      -1.32748839       1.41087690       1.57064847       0.00000000
Si      -2.67563250      -2.69474067       0.19023177       0.00000000
Si       2.67960726       2.70159876       0.14514232       0.00000000
Si      -2.71601541       2.79446805       0.23783020       0.00000000
Si       2.78795205      -2.74576095       0.07186464       0.00000000
Si       0.02318067      -2.64650598       2.95369479       0.00000000
Si       0.28759995       2.76586281      -2.84794641       0.00000000
