10
Lattice="16.28999089631971 0.0 0.0 0.0 16.28999089631971 0.0 0.0 0.0 34.46413024517268" Properties=species:S:1:pos:R:3:initial_magmoms:R:1 pbc="T T T"
Si      -1.35725022      -1.35571896      -1.35788749       0.00000000
Si       1.35646830       1.35780408      -1.35702589       0.00000000
Si       1.35672894      -1.35682668       1.35792195       0.00000000
Si      -1.35782037       1.35736425       1.35740499       0.00000000
Si       2.71363707       0.00019548       2.71453427       0.00000000
Si      -2.71524001       0.00213399       2.71408624       0.00000000
Si       2.71461447      -2.71471547      -0.00037911       0.00000000
Si      -2.71519602      -2.71446786      -0.00010339       0.00000000
Si       0.00104256       2.71580364       2.71405177       0.00000000
Si       0.00076563       2.71410948      -2.71601623       0.00000000
