10
Lattice="16.28999089631971 0.0 0.0 0.0 16.28999089631971 0.0 0.0 0.0 34.46413024517268" Properties=species:S:1:pos:R:3:initial_magmoms:R:1 pbc="T T T"
Si      -1.46566573       1.08307975      -1.46217601       0.00000000
Si       1.83321307       1.51670326       0.28529423       0.00000000
Si      -0.67876099      -0.57842206       2.29338236       0.00000000
Si       0.29988424      -1.88913568      -1.73182351       0.00000000
Si       0.78889864       3.66203110       0.70268954       0.00000000
Si      -1.23240922       1.39319248       3.53192051       0.00000000
Si       1.10830807      -1.72284736       3.43628249       0.00000000
Si       3.21574537       1.58187955      -1.79754665       0.00000000
Si      -3.09634360      -0.07109445      -2.58219194       0.00000000
Si      -1.35660418      -3.56695681      -1.42274902       0.00000000
