10
Lattice="16.28999089631971 0.0 0.0 0.0 16.28999089631971 0.0 0.0 0.0 34.46413024517268" Properties=species:S:1:pos:R:3:initial_magmoms:R:1 pbc="T T T"
Si       1.99803366       0.85401954      -0.93725255       0.00000000
Si      -1.69435548       1.31013954      -1.11377792       0.00000000
Si      -0.72687609      -2.29886109      -0.24018066       0.00000000
Si       0.23162751       0.93678903       2.29582932       0.00000000
Si      -1.89908820       1.86613353       2.14780580       0.00000000
Si       1.08359451       2.87979507      -1.90579854       0.00000000
Si      -2.10940839      -2.36403738       1.84266022       0.00000000
Si       2.49782715      -0.75590487      -2.65346380       0.00000000
Si      -1.98154818       3.22032123       0.17514681       0.00000000
Si       1.26573300      -3.59926898      -0.04652660       0.00000000
