10
Lattice="16.28999089631971 0.0 0.0 0.0 16.28999089631971 0.0 0.0 0.0 34.46413024517268" Properties=species:S:1:pos:R:3:initial_magmoms:R:1 pbc="T T T"
Si       1.21231809      -1.77122799      -0.81297482       0.00000000
Si       0.78951114       1.95352938       0.97319865       0.00000000
Si      -1.07781156      -0.73256130       1.96952275       0.00000000
Si      -1.56258567       0.53338347      -1.69343045       0.00000000
Si      -1.00766682      -2.72218932      -1.31084393       0.00000000
Si      -2.77927762       0.83219094       1.73016923       0.00000000
Si      -3.42938872       0.12052971      -0.38954828       0.00000000
Si       2.41810389      -2.18799135       1.21630876       0.00000000
Si      -1.35446463       2.71437012       1.80554233       0.00000000
Si       2.02316913       2.97070956      -0.73236318       0.00000000
