10
Lattice="16.28999089631971 0.0 0.0 0.0 16.28999089631971 0.0 0.0 0.0 34.46413024517268" Properties=species:S:1:pos:R:3:initial_magmoms:R:1 pbc="T T T"
Si      -1.84339269      -0.01464471      -1.47565149       0.00000000
Si      -0.03689685      -2.34336537       0.38475777       0.00000000
Si       2.07146898       0.57085047      -1.04550444       0.00000000
Si      -0.55201923       1.91519901       1.37074262       0.00000000
Si      -0.60973470       1.00253547      -3.18121332       0.00000000
Si       0.53843337       3.40421904      -0.10708011       0.00000000
Si      -2.22650091      -2.36271789       1.27696567       0.00000000
Si       2.16160155       0.27223848       2.84170698       0.00000000
Si       1.64770092       0.28914750      -3.34074787       0.00000000
Si       3.55058469      -1.10571633      -0.39933610       0.00000000
