10
Lattice="16.28999089631971 0.0 0.0 0.0 16.28999089631971 0.0 0.0 0.0 34.46413024517268" Properties=species:S:1:pos:R:3:initial_magmoms:R:1 pbc="T T T"
Si      -1.67508441       0.55469079       1.56091580       0.00000000
Si       1.82039121       1.49301108      -0.12083131       0.00000000
Si       0.92996352      -2.09717460       0.54391321       0.00000000
Si      -1.02193686      -0.33155037      -2.19353972       0.00000000
Si       2.16797094       1.05256206      -2.48197019       0.00000000
Si      -2.89395108      -1.57157775      -1.39879644       0.00000000
Si       1.73312568      -1.79245386       2.70226503       0.00000000
Si      -0.46905426       1.34938215       3.42821788       0.00000000
Si      -2.61573417       2.55262671       0.88638346       0.00000000
Si       1.06303653       3.58836120      -0.88865809       0.00000000
