10
Lattice="16.28999089631971 0.0 0.0 0.0 16.28999089631971 0.0 0.0 0.0 34.46413024517268" Properties=species:S:1:pos:R:3:initial_magmoms:R:1 pbc="T T T"
Si      -0.86988600       0.19264554      -2.14718544       0.00000000
Si      -1.23365799      -1.01718018       1.70556183       0.00000000
Si       0.30460671       2.16178074       0.86725586       0.00000000
Si       2.25743562      -0.71338797      -0.15953455       0.00000000
Si       0.60973470      -1.00253547       3.18121332       0.00000000
Si       2.68120368      -0.43168500       2.13570888       0.00000000
Si       3.09555612       1.15880544      -1.30581216       0.00000000
Si       1.77935670       3.08759031      -0.75583326       0.00000000
Si      -2.02316913      -2.97070956       0.73236318       0.00000000
Si       0.78265305      -0.76799205      -3.59295651       0.00000000
