10
Lattice="16.28999089631971 0.0 0.0 0.0 16.28999089631971 0.0 0.0 0.0 34.46413024517268" Properties=species:S:1:pos:R:3:initial_magmoms:R:1 pbc="T T T"
Si      -1.35622395      -1.35606105       1.35719821       0.00000000
Si       1.35708732      -1.35715248      -1.35640553       0.00000000
Si       1.35744570       1.35567009       1.35785303       0.00000000
Si      -1.35762489       1.35778779      -1.35702589       0.00000000
Si      -0.00076563      -2.71458189      -2.71329356       0.00000000
Si      -0.00058644       2.71349349      -2.71449981       0.00000000
Si       2.71435383      -0.00205254      -2.71425856       0.00000000
Si      -2.71505430      -0.00127062      -2.71408624       0.00000000
Si       2.71472850       2.71495160       0.00051696       0.00000000
Si      -2.71482624      -2.71503801       0.00096500       0.00000000
