10
Lattice="16.28999089631971 0.0 0.0 0.0 16.28999089631971 0.0 0.0 0.0 34.46413024517268" Properties=species:S:1:pos:R:3:initial_magmoms:R:1 pbc="T T T"
Si       1.15211025       1.19710323       1.63342837       0.00000000
Si      -1.18983789       1.52089956      -1.32125210       0.00000000
Si       1.54435716      -1.21516884      -1.32562905       0.00000000
Si       0.89300151      -0.93931398       2.90012372       0.00000000
Si      -2.24885079      -2.53638558       0.19293031       0.00000000
Si      -1.18035711      -2.14223274       2.43165253       0.00000000
Si      -2.52946233       0.14791320      -2.70226503       0.00000000
Si       0.19279215      -2.57606802      -2.70633180       0.00000000
Si      -0.52474977       2.45254095       2.92593736       0.00000000
Si       2.77436619       2.67889050       0.09146785       0.00000000
