10
Lattice="16.28999089631971 0.0 0.0 0.0 16.28999089631971 0.0 0.0 0.0 34.46413024517268" Properties=species:S:1:pos:R:3:initial_magmoms:R:1 pbc="T T T"
Si      -1.59480729      -1.51594740       0.79339919       0.00000000
Si       0.79063515       1.42045542       1.69015636       0.00000000
Si       2.08396341      -0.48021291      -0.98164237       0.00000000
Si      -1.35027810       0.78226209      -1.95198050       0.00000000
Si       1.35596331       3.39496699       0.59299016       0.00000000
Si      -2.61829170      -0.47759022       2.67944977       0.00000000
Si       2.84131809      -2.57556303      -0.21381558       0.00000000
Si       1.74263904      -1.22077260      -3.21950299       0.00000000
Si      -0.65415753      -3.51388332       1.46793152       0.00000000
Si      -2.25326538      -1.37819916      -2.82957560       0.00000000
