10
Lattice="16.28999089631971 0.0 0.0 0.0 16.28999089631971 0.0 0.0 0.0 34.46413024517268" Properties=species:S:1:pos:R:3:initial_magmoms:R:1 pbc="T T T"
Si      -2.08396341       0.48021291       0.98164237       0.00000000
Si       0.75735468      -2.09535012       0.76782679       0.00000000
Si      -0.34132437      -0.74055969      -2.23786062       0.00000000
Si       1.80405234       1.60761123       0.06617117       0.00000000
Si       1.10493441      -2.53579914      -1.59331210       0.00000000
Si      -1.29332826       1.90066833       2.67179873       0.00000000
Si       3.74068899       0.25334208      -0.36042608       0.00000000
Si      -0.08221563       1.39585752      -3.50455597       0.00000000
Si      -3.43424151       1.26247500      -0.97033813       0.00000000
Si      -1.06303653      -3.58836120       0.88865809       0.00000000
