10
Lattice="16.28999089631971 0.0 0.0 0.0 16.28999089631971 0.0 0.0 0.0 34.46413024517268" Properties=species:S:1:pos:R:3:initial_magmoms:R:1 pbc="T T T"
Si       1.45753146      -0.83797389      -1.60609830       0.00000000
Si      -1.97480412      -1.29930669      -0.12413987       0.00000000
Si       0.20971746       2.31783894      -0.51041405       0.00000000
Si       1.22407947      -0.58556034       1.98703054       0.00000000
Si       2.94376590       1.01483442      -1.18625603       0.00000000
Si       2.09517093      -2.95411005      -0.86604961       0.00000000
Si      -1.73604159       2.84034069      -1.76921711       0.00000000
Si      -1.42516323      -3.48050511       0.59567836       0.00000000
Si       2.54027889      -2.51434521       1.43705164       0.00000000
Si       0.31464135      -1.15567776      -3.67318905       0.00000000
