10
Lattice="16.28999089631971 0.0 0.0 0.0 16.28999089631971 0.0 0.0 0.0 34.46413024517268" Properties=species:S:1:pos:R:3:initial_magmoms:R:1 pbc="T T T"
Si      -1.45583730       1.41843939       1.13924693       0.00000000
Si       2.30677803       0.40889529      -0.37297103       0.00000000
Si      -0.92266560       0.74890540      -2.08973371       0.00000000
Si      -0.88669728      -2.21825817       0.61394436       0.00000000
Si      -3.33819567       0.12753441       0.46040657       0.00000000
Si       2.35502901      -0.99131166      -2.31964405       0.00000000
Si       0.40926996      -0.46880991      -3.57844711       0.00000000
Si      -3.10715460      -0.06333552      -1.94188250       0.00000000
Si      -2.96461710      -1.85878674       1.60154903       0.00000000
Si      -1.44080163       3.61479077       0.35515306       0.00000000
