10
Lattice="16.28999089631971 0.0 0.0 0.0 16.28999089631971 0.0 0.0 0.0 34.46413024517268" Properties=species:S:1:pos:R:3:initial_magmoms:R:1 pbc="T T T"
Si      -1.35018036      -1.34680670       1.37080121       0.00000000
Si       1.36207206       1.36528119       1.36590730       0.00000000
Si      -1.30310226       1.26848601      -1.51302786       0.00000000
Si       1.37194380      -1.38206478      -1.37361348       0.00000000
Si       2.31159987       0.50257908      -2.47363262       0.00000000
Si       0.60325128       2.15656794      -2.71132018       0.00000000
Si      -2.42220897      -0.33666543      -2.91889776       0.00000000
Si      -2.71445157      -2.71367214       0.00009995       0.00000000
Si       2.72223819      -2.70593312       0.01718038       0.00000000
Si      -2.70902700       2.72254770      -0.02770918       0.00000000
