10
Lattice="16.28999089631971 0.0 0.0 0.0 16.28999089631971 0.0 0.0 0.0 34.46413024517268" Properties=species:S:1:pos:R:3:initial_magmoms:R:1 pbc="T T T"
Si       1.00179916      -1.24693434       1.78482937       0.00000000
Si      -1.39095423       1.59397650       1.28347939       0.00000000
Si       2.12854588       1.24888914      -0.25234650       0.00000000
Si      -1.31734786      -0.52655796      -2.29059077       0.00000000
Si       2.24016496      -2.54555359       0.28450155       0.00000000
Si      -1.99573092       3.11443623      -0.74501152       0.00000000
Si       3.49483705      -0.95910633      -1.05384476       0.00000000
Si      -1.83346623       1.77047865      -2.91470205       0.00000000
Si       2.47268842       0.09643680       3.10486631       0.00000000
Si       0.33278515      -0.93946059      -3.97416447       0.00000000
