10
Lattice="16.28999089631971 0.0 0.0 0.0 16.28999089631971 0.0 0.0 0.0 34.46413024517268" Properties=species:S:1:pos:R:3:initial_magmoms:R:1 pbc="T T T"
Si       1.35374787       1.35058761       1.38110254       0.00000000
Si      -1.36490978      -1.36316349       1.37906916       0.00000000
Si       1.36976094      -1.41204978      -1.38401476       0.00000000
Si      -1.34903517       1.40869404      -1.44507145       0.00000000
Si       2.71790505       2.69356779      -0.00359806       0.00000000
Si      -2.73019490      -2.69998605       0.00405988       0.00000000
Si      -2.73810921       2.70519885      -0.00355670       0.00000000
Si      -0.00487071       2.70850572       2.73892110       0.00000000
Si       2.70945054      -0.00571779       2.74009288       0.00000000
Si       2.72707632      -2.73137688       0.01221754       0.00000000
