10
Lattice="16.28999089631971 0.0 0.0 0.0 16.28999089631971 0.0 0.0 0.0 34.46413024517268" Properties=species:S:1:pos:R:3:initial_magmoms:R:1 pbc="T T T"
Si       0.50632578      -2.07047529      -0.99828855       0.00000000
Si      -1.97884404       1.25058330      -0.60874027       0.00000000
Si      -0.41166459      -0.75473199       2.33570434       0.00000000
Si       2.33100126       0.53108658       0.93990629       0.00000000
Si      -0.92835081       3.22318827       0.27467927       0.00000000
Si       2.36636685      -2.40876972       0.49848946       0.00000000
Si       0.42479433       1.19027772       3.41743060       0.00000000
Si       0.90456741      -2.71318095       2.38354058       0.00000000
Si       3.03989319       2.06373123      -0.63607034       0.00000000
Si       1.16607078       3.48741207      -0.86463658       0.00000000
