10
Lattice="16.28999089631971 0.0 0.0 0.0 16.28999089631971 0.0 0.0 0.0 34.46413024517268" Properties=species:S:1:pos:R:3:initial_magmoms:R:1 pbc="T T T"
Si       0.83812050       1.87219341      -1.14627761       0.00000000
Si       0.42376806       0.28170297       2.29524343       0.00000000
Si      -2.25743562       0.71338797       0.15953455       0.00000000
Si       1.16115120      -1.58394186      -1.40448302       0.00000000
Si      -1.95282891       2.87516871       1.02679041       0.00000000
Si       3.17557260       1.69166763      -0.92236403       0.00000000
Si      -0.50933943      -2.17904814      -2.97835734       0.00000000
Si      -1.64770092      -0.28914750       3.34074787       0.00000000
Si      -1.47478257      -0.05460408      -3.43342197       0.00000000
Si       0.39301254       1.43242857      -3.44937887       0.00000000
