10
Lattice="16.28999089631971 0.0 0.0 0.0 16.28999089631971 0.0 0.0 0.0 34.46413024517268" Properties=species:S:1:pos:R:3:initial_magmoms:R:1 pbc="T T T"
Si      -1.81172493      -1.54250010      -0.00827140       0.00000000
Si       1.96472061      -0.71739531       1.16378540       0.00000000
Si       0.24896007       0.71959446      -2.29482986       0.00000000
Si      -1.14002307       2.09754927       0.94621322       0.00000000
Si      -3.33852147      -0.51805458      -1.51073599       0.00000000
Si       0.31799709      -1.34346888      -3.50245366       0.00000000
Si       1.18392462      -0.92895354       3.48970192       0.00000000
Si       3.26435310       1.49687181       1.26021609       0.00000000
Si       0.41330988       3.83979735       0.03704896       0.00000000
Si       2.55212172      -2.84340321      -0.62966001       0.00000000
