10
Lattice="16.28999089631971 0.0 0.0 0.0 16.28999089631971 0.0 0.0 0.0 34.46413024517268" Properties=species:S:1:pos:R:3:initial_magmoms:R:1 pbc="T T T"
Si      -1.34480466      -0.49508568       1.88208720       0.00000000
Si      -1.52679654       1.02444552      -1.50246460       0.00000000
Si       1.81172493       1.54250010       0.00827140       0.00000000
Si       0.53910126      -2.14900938      -0.87435547       0.00000000
Si       0.58163445      -1.56309066      -3.11783375       0.00000000
Si      -1.70469963      -0.78835455      -3.11976374       0.00000000
Si      -3.35213991      -1.27905822       0.65592169       0.00000000
Si      -0.02981070      -1.87968681       3.29039575       0.00000000
Si       2.06068500       2.26209456      -2.28655846       0.00000000
Si       0.67170186       3.64004937       0.95448462       0.00000000
