10
Lattice="16.28999089631971 0.0 0.0 0.0 16.28999089631971 0.0 0.0 0.0 34.46413024517268" Properties=species:S:1:pos:R:3:initial_magmoms:R:1 pbc="T T T"
Si      -1.20448260       1.45156932      -1.45797138       0.00000000
Si       1.18752471       1.38730527       1.53511735       0.00000000
Si      -1.49208255      -1.31429349       1.38997503       0.00000000
Si       0.87827535      -0.14546970      -2.27994135       0.00000000
Si      -2.63643876       2.61592965       0.10921689       0.00000000
Si       2.99478618       2.28398832       0.19255120       0.00000000
Si      -0.11005524      -2.60599275       2.94715836       0.00000000
Si      -2.72717406      -2.84804586      -0.05376407       0.00000000
Si       2.59198335       0.10055817       2.97591180       0.00000000
Si      -2.81957094       0.09658341       2.96062350       0.00000000
