10
Lattice="16.28999089631971 0.0 0.0 0.0 16.28999089631971 0.0 0.0 0.0 34.46413024517268" Properties=species:S:1:pos:R:3:initial_magmoms:R:1 pbc="T T T"
Si      -1.35677781       1.35685926      -1.35681910       0.00000000
Si       1.35817875      -1.35790182      -1.35726714       0.00000000
Si      -1.35762489      -1.35791811       1.35781856       0.00000000
Si       1.35827649       1.35785295       1.35750838       0.00000000
Si      -2.71435383       2.71378368      -0.00020678       0.00000000
Si      -0.00073305      -2.71435383      -2.71432749       0.00000000
Si      -0.00166158       2.71505430      -2.71394838       0.00000000
Si      -2.71476108      -0.00112401      -2.71425856       0.00000000
Si      -0.00115659       2.71309950       2.71601623       0.00000000
Si       2.71515204       2.71438641      -0.00003446       0.00000000
