10
Lattice="16.28999089631971 0.0 0.0 0.0 16.28999089631971 0.0 0.0 0.0 34.46413024517268" Properties=species:S:1:pos:R:3:initial_magmoms:R:1 pbc="T T T"
Si       1.35514881       1.35726651       1.35761178       0.00000000
Si      -1.35842310      -1.35576783       1.35654339       0.00000000
Si       1.35757602      -1.35692442      -1.35661232       0.00000000
Si      -1.35816246       1.35860229      -1.35657785       0.00000000
Si      -2.71015101      -0.00622278       2.71487891       0.00000000
Si       2.71269225       0.00127062      -2.71374160       0.00000000
Si      -0.00074934      -2.71101438       2.71653319       0.00000000
Si      -0.00089595       2.71370223      -2.71443088       0.00000000
Si       2.71435383      -2.71378368       0.00020678       0.00000000
Si      -2.71425609      -2.71407690       0.00017232       0.00000000
