10
Lattice="16.28999089631971 0.0 0.0 0.0 16.28999089631971 0.0 0.0 0.0 34.46413024517268" Properties=species:S:1:pos:R:3:initial_magmoms:R:1 pbc="T T T"
Si      -0.19505646      -1.89468990      -1.36467693       0.00000000
Si      -1.04682798       2.04651270      -0.48615129       0.00000000
Si       0.36812142      -1.20747996       2.01697989       0.00000000
Si       2.06374752       1.19980737      -0.33485368       0.00000000
Si       1.22238531       0.53506134       3.42747832       0.00000000
Si       2.89396737      -0.55592883      -2.26722408       0.00000000
Si       2.11942674       2.30508387       2.02828413       0.00000000
Si      -2.70989037       1.89519489       1.84503824       0.00000000
Si       1.98189027      -2.70166392      -1.80650732       0.00000000
Si      -1.16276391      -1.20839220      -3.45568581       0.00000000
