10
Lattice="16.28999089631971 0.0 0.0 0.0 16.28999089631971 0.0 0.0 0.0 34.46413024517268" Properties=species:S:1:pos:R:3:initial_magmoms:R:1 pbc="T T T"
Si       1.33442793       1.33696917      -1.37088392       0.00000000
Si       1.35031068      -1.35602847       1.35550946       0.00000000
Si      -1.36327752       1.35640314       1.35482018       0.00000000
Si      -1.36332639      -1.35246096      -1.37792150       0.00000000
Si       2.59854822      -0.15732882      -2.74589320       0.00000000
Si      -0.12184920       2.55775806      -2.78676768       0.00000000
Si       2.70933651       0.00086337       2.71256982       0.00000000
Si      -0.00480555      -2.71422351       2.71263874       0.00000000
Si       2.71163340      -2.71529865      -0.00754765       0.00000000
Si       2.70860346       2.71994130      -0.00530748       0.00000000
