10
Lattice="16.28999089631971 0.0 0.0 0.0 16.28999089631971 0.0 0.0 0.0 34.46413024517268" Properties=species:S:1:pos:R:3:initial_magmoms:R:1 pbc="T T T"
Si       1.45627713      -1.22078889       1.41588376       0.00000000
Si      -1.21187826      -1.35495333      -1.54156559       0.00000000
Si      -1.24413246       1.50616180       1.41279233       0.00000000
Si       1.78662204       1.05560829      -1.23370041       0.00000000
Si       0.27108189       2.15077752      -2.85657968       0.00000000
Si      -2.62286919      -2.58646104      -0.00260549       0.00000000
Si       0.12184920      -2.55775806       2.78676768       0.00000000
Si      -2.59851564       0.15780123       2.78266645       0.00000000
Si      -2.53664622       2.86421110      -0.03068343       0.00000000
Si       2.72039742      -2.71508688       0.04087448       0.00000000
