10
Lattice="16.28999089631971 0.0 0.0 0.0 16.28999089631971 0.0 0.0 0.0 34.46413024517268" Properties=species:S:1:pos:R:3:initial_magmoms:R:1 pbc="T T T"
Si      -1.34008056      -1.32926400      -1.37536081       0.00000000
Si      -1.47343050       1.20205539       1.42295580       0.00000000
Si       1.37187864       1.38350858      -1.37091494       0.00000000
Si       1.36741518      -1.43294985       1.41854439       0.00000000
Si       0.48193965       1.95878683       2.65949502       0.00000000
Si       2.33999334       0.26715600       2.74365648       0.00000000
Si      -2.70343953      -2.69200395       0.00585891       0.00000000
Si       0.01029528      -2.68941384      -2.73211099       0.00000000
Si       2.74149297      -2.68095933      -0.01936885       0.00000000
Si      -2.70265761       0.02474451      -2.73204206       0.00000000
