10
Lattice="16.28999089631971 0.0 0.0 0.0 16.28999089631971 0.0 0.0 0.0 34.46413024517268" Properties=species:S:1:pos:R:3:initial_magmoms:R:1 pbc="T T T"
Si      -1.46991186      -0.12587283       1.92234133       0.00000000
Si       1.44744795      -1.91910861      -0.31993070       0.00000000
Si       1.56162456       1.85921028      -0.12810324       0.00000000
Si      -1.38769623      -0.07980471      -1.99557765       0.00000000
Si       1.01556747      -2.23332642      -2.68461939       0.00000000
Si       0.23280039      -0.23061753      -3.63334850       0.00000000
Si      -3.10738266      -1.68019947       1.17770892       0.00000000
Si       2.43626724       1.93433976       2.07770572       0.00000000
Si       0.54626886      -3.78951012       0.85164360       0.00000000
Si       0.48638682       3.89188855      -0.84861075       0.00000000
