10
Lattice="16.28999089631971 0.0 0.0 0.0 16.28999089631971 0.0 0.0 0.0 34.46413024517268" Properties=species:S:1:pos:R:3:initial_magmoms:R:1 pbc="T T T"
Si       1.73750769       1.65141504      -0.00230910       0.00000000
Si       0.50279085      -1.88768520      -1.41871671       0.00000000
Si      -2.17908072       0.75917916      -0.73932494       0.00000000
Si      -0.31886046      -0.66456684       2.49465300       0.00000000
Si      -3.39654645      -1.06171704       0.17890340       0.00000000
Si      -1.54717533       1.08317097      -3.03825603       0.00000000
Si       3.35103219       0.49767579       1.37432689       0.00000000
Si      -0.37493064      -0.97580358      -3.50882953       0.00000000
Si       0.93237444       3.37409950       1.40176035       0.00000000
Si      -2.90843289       2.54153063       0.71988715       0.00000000
