10
Lattice="16.28999089631971 0.0 0.0 0.0 16.28999089631971 0.0 0.0 0.0 34.46413024517268" Properties=species:S:1:pos:R:3:initial_magmoms:R:1 pbc="T T T"
Si       1.04682798      -2.04651270       0.48615129       0.00000000
Si       0.31886046       0.66456684      -2.49465300       0.00000000
Si      -1.66306239      -0.15131781       2.33118954       0.00000000
Si      -2.87425647      -0.07464078       0.12634557       0.00000000
Si       3.11057550      -0.84670533       0.15129762       0.00000000
Si      -2.62415610       2.25184815       0.56765901       0.00000000
Si      -0.18010224       3.35441304       1.01617545       0.00000000
Si       1.33543791       2.25924381       2.63905472       0.00000000
Si      -3.07768599      -0.39715020      -2.31574960       0.00000000
Si       2.05636815       2.31598188      -2.49696210       0.00000000
