10
Lattice="16.28999089631971 0.0 0.0 0.0 16.28999089631971 0.0 0.0 0.0 34.46413024517268" Properties=species:S:1:pos:R:3:initial_magmoms:R:1 pbc="T T T"
Si       0.07387515      -2.14567807       0.83013797       0.00000000
Si       1.86765080       1.13388174       0.93318578       0.00000000
Si      -2.18958777       0.31539069       0.87232209       0.00000000
Si      -0.06999813       0.04311963      -2.43578823       0.00000000
Si      -2.89717650       1.65139875      -0.96895956       0.00000000
Si       2.03967809      -2.88205028      -0.12913717       0.00000000
Si      -2.37221496       0.41477598      -2.89205911       0.00000000
Si       1.51535023       3.44792511       0.68690496       0.00000000
Si       1.19294669       1.98358443      -3.05045634       0.00000000
Si      -1.99907622      -3.28975640       0.48825361       0.00000000
