10
Lattice="16.28999089631971 0.0 0.0 0.0 16.28999089631971 0.0 0.0 0.0 34.46413024517268" Properties=species:S:1:pos:R:3:initial_magmoms:R:1 pbc="T T T"
Si      -0.37524015      -1.53267495       1.79603022       0.00000000
Si       1.66980875       1.70619831       0.18538266       0.00000000
Si      -2.09201067       1.25180505       0.14481836       0.00000000
Si       1.20808269      -1.57137983      -1.43736182       0.00000000
Si      -1.41270138      -3.25154006       0.56972686       0.00000000
Si      -2.10939210       2.28286431      -2.00433154       0.00000000
Si       1.66531434      -2.31724340       2.45319263       0.00000000
Si      -3.02622588      -2.09780081      -0.80690913       0.00000000
Si       0.29812329      -3.70723652      -0.96237691       0.00000000
Si       3.31994177       1.29329568      -1.49819104       0.00000000
