10
Lattice="16.28999089631971 0.0 0.0 0.0 16.28999089631971 0.0 0.0 0.0 34.46413024517268" Properties=species:S:1:pos:R:3:initial_magmoms:R:1 pbc="T T T"
Si       2.14316683      -0.82971486      -0.04873231       0.00000000
Si      -1.26003150      -0.52396785      -1.89890571       0.00000000
Si      -0.92567925      -0.65546073       2.05085814       0.00000000
Si       0.13678713       2.34548307       0.03536022       0.00000000
Si       2.79327792      -0.11805363       2.07098521       0.00000000
Si      -2.47775787       1.11638628       2.22824512       0.00000000
Si      -2.11537053       2.89900098       0.60067566       0.00000000
Si       1.01491587      -0.89935461       3.47195289       0.00000000
Si       0.23653080      -0.54367875      -3.72791812       0.00000000
Si       1.02822480       3.06810747      -2.00760564       0.00000000
