10
Lattice="16.28999089631971 0.0 0.0 0.0 16.28999089631971 0.0 0.0 0.0 34.46413024517268" Properties=species:S:1:pos:R:3:initial_magmoms:R:1 pbc="T T T"
Si       1.87382241      -1.42368084       0.22856624       0.00000000
Si      -2.09442159      -0.26422380       1.13931585       0.00000000
Si       1.07396712       2.25495954      -0.37996725       0.00000000
Si      -0.96070275      -0.01167993      -2.40211676       0.00000000
Si       0.99517239       0.56840697       2.60793666       0.00000000
Si      -3.22146153       1.60801848      -0.05197194       0.00000000
Si       1.16493048      -2.95632549       1.80454287       0.00000000
Si      -1.16607078      -3.48741207       0.86463658       0.00000000
Si      -3.14491482      -2.23682877       0.25589631       0.00000000
Si       2.24880192       2.06110854      -2.40504621       0.00000000
