10
Lattice="16.28999089631971 0.0 0.0 0.0 16.28999089631971 0.0 0.0 0.0 34.46413024517268" Properties=species:S:1:pos:R:3:initial_magmoms:R:1 pbc="T T T"
Si       0.83258190       0.07726347      -2.17803086       0.00000000
Si      -1.32776532      -1.92192678       0.00382552       0.00000000
Si      -1.77106509       1.42493258       0.66570951       0.00000000
Si       1.63401732      -0.06590934       1.73354672       0.00000000
Si       0.00105885       0.16790103       3.50907077       0.00000000
Si      -2.59405218      -1.59293394      -1.97358952       0.00000000
Si      -0.58652145      -1.27586538      -3.41326044       0.00000000
Si      -1.07417889       2.20057930       2.78856326       0.00000000
Si       2.68058466      -1.38424275      -2.16383163       0.00000000
Si      -2.94826194      -1.77111396       1.64159637       0.00000000
