10
Lattice="16.28999089631971 0.0 0.0 0.0 16.28999089631971 0.0 0.0 0.0 34.46413024517268" Properties=species:S:1:pos:R:3:initial_magmoms:R:1 pbc="T T T"
Si      -0.66226995      -1.22126130       1.89149592       0.00000000
Si       2.32957493       0.26344188       0.24348922       0.00000000
Si      -0.18643905      -0.83261448      -2.20629146       0.00000000
Si      -1.28940237       2.04118587      -0.07089276       0.00000000
Si       2.22207722       2.56696191       0.89076041       0.00000000
Si      -3.03653745      -1.50332265       1.51280384       0.00000000
Si       0.43500816       3.71138721      -0.25213972       0.00000000
Si       3.35305934      -0.77491530      -1.64256137       0.00000000
Si      -1.74493593      -2.57566077      -2.24937165       0.00000000
Si       0.35176626      -3.30436134       2.15021829       0.00000000
