10
Lattice="16.28999089631971 0.0 0.0 0.0 16.28999089631971 0.0 0.0 0.0 34.46413024517268" Properties=species:S:1:pos:R:3:initial_magmoms:R:1 pbc="T T T"
Si      -1.80361251       0.96244578       1.11698309       0.00000000
Si       0.47517997      -1.94644323       1.31508302       0.00000000
Si       1.99343078       1.31400027       0.41873942       0.00000000
Si      -1.03345389      -0.67877172      -2.12395661       0.00000000
Si      -0.01941768      -2.76187176      -1.86523424       0.00000000
Si      -0.91085535      -3.48449616       0.17773162       0.00000000
Si       2.29572431      -2.48075523      -1.37036351       0.00000000
Si       2.77626302      -2.22275421       0.90816480       0.00000000
Si      -0.88829370       1.85018562       3.09067600       0.00000000
Si       1.61985221       3.30032142      -0.72240304       0.00000000
