10
Lattice="16.28999089631971 0.0 0.0 0.0 16.28999089631971 0.0 0.0 0.0 34.46413024517268" Properties=species:S:1:pos:R:3:initial_magmoms:R:1 pbc="T T T"
Si       0.46356453       1.95108588      -1.14207299       0.00000000
Si      -1.86680305      -0.41285376       1.30388217       0.00000000
Si       0.00609246      -1.85648985      -1.43805110       0.00000000
Si       1.56258567      -0.53338347       1.69343045       0.00000000
Si       0.55491885      -3.25557279       0.38258652       0.00000000
Si      -1.51450248      -2.72689713       1.55016298       0.00000000
Si      -1.21669195       0.29880747       3.42359968       0.00000000
Si       2.77490376      -2.30461146       0.88045563       0.00000000
Si      -2.18920658      -1.87719444      -2.43347913       0.00000000
Si      -0.66660309       3.76608510      -0.16012044       0.00000000
