10
Lattice="16.28999089631971 0.0 0.0 0.0 16.28999089631971 0.0 0.0 0.0 34.46413024517268" Properties=species:S:1:pos:R:3:initial_magmoms:R:1 pbc="T T T"
Si      -2.14316683       0.82971486       0.04873231       0.00000000
Si       1.86680305       0.41285376      -1.30388217       0.00000000
Si       0.65011109       0.71166123       2.11971752       0.00000000
Si       0.35230057      -2.31404337       0.24628081       0.00000000
Si       2.35157716      -0.85309101       2.35907103       0.00000000
Si       3.42938872      -0.12052971       0.38954828       0.00000000
Si       1.87289551      -1.44363609      -2.74193327       0.00000000
Si      -1.12825096      -0.06963975       3.52068519       0.00000000
Si      -3.06884608       0.17425413       2.09959045       0.00000000
Si      -2.00637970       3.17519793       0.08409252       0.00000000
