10
Lattice="16.28999089631971 0.0 0.0 0.0 16.28999089631971 0.0 0.0 0.0 34.46413024517268" Properties=species:S:1:pos:R:3:initial_magmoms:R:1 pbc="T T T"
Si      -1.33713207       1.36034532       1.35692249       0.00000000
Si       1.38852702      -1.38359115       1.33281827       0.00000000
Si      -1.75589910      -0.90921006      -1.35636559       0.00000000
Si       1.57165920       1.13575509      -1.51858835       0.00000000
Si      -2.62022044       2.59561602      -0.20645059       0.00000000
Si      -2.67841320      -2.66846490      -0.10865512       0.00000000
Si       2.71388142       2.67498090      -0.06823557       0.00000000
Si      -2.69229554      -0.00864999       2.71448602       0.00000000
Si       0.02062314       2.70482418       2.71906975       0.00000000
Si       0.02436984      -2.72657133       2.71751887       0.00000000
