10
Lattice="16.28999089631971 0.0 0.0 0.0 16.28999089631971 0.0 0.0 0.0 34.46413024517268" Properties=species:S:1:pos:R:3:initial_magmoms:R:1 pbc="T T T"
Si      -1.35770145      -1.35661491       1.35812874       0.00000000
Si       1.35718506       1.35883035       1.35816320       0.00000000
Si       1.35861858      -1.35791811      -1.35781856       0.00000000
Si      -1.35804680       1.36000323      -1.36085141       0.00000000
Si      -2.71481426      -2.71336014       0.00227463       0.00000000
Si       2.71432125      -2.71422351       0.00117178       0.00000000
Si       0.00003258      -2.71466334       2.71560266       0.00000000
Si      -2.71478896       0.00070047       2.71574052       0.00000000
Si       2.71445157       2.71621089       0.00158535       0.00000000
Si       2.71621089       0.00096111       2.71522355       0.00000000
