10
Lattice="16.28999089631971 0.0 0.0 0.0 16.28999089631971 0.0 0.0 0.0 34.46413024517268" Properties=species:S:1:pos:R:3:initial_magmoms:R:1 pbc="T T T"
Si       1.35737728       1.35694071      -1.35812874       0.00000000
Si      -1.35725863       1.35423657       1.36123051       0.00000000
Si      -1.35780264      -1.35811359      -1.35823213       0.00000000
Si       1.35592747      -1.35845568       1.36074801       0.00000000
Si      -2.69585883      -0.02124216       2.71356928       0.00000000
Si       2.71417138       0.00001629      -2.71580945       0.00000000
Si      -0.00027367       2.71430496      -2.71587837       0.00000000
Si       2.71588183      -2.71503801      -0.00172321       0.00000000
Si      -2.71535796      -0.00076563      -2.71587837       0.00000000
Si      -0.00071513      -2.71542897      -2.71584391       0.00000000
