10
Lattice="16.28999089631971 0.0 0.0 0.0 16.28999089631971 0.0 0.0 0.0 34.46413024517268" Properties=species:S:1:pos:R:3:initial_magmoms:R:1 pbc="T T T"
Si       1.31827151      -1.42794882      -1.29647238       0.00000000
Si       0.03083371      -1.06306911       2.18523386       0.00000000
Si      -1.61543436       1.44332658      -1.15954631       0.00000000
Si       1.57047329       1.88911872       0.83727205       0.00000000
Si       0.70555737       1.04487318       2.86076566       0.00000000
Si      -1.99041387      -2.04146280       1.47406614       0.00000000
Si       2.42452541       0.44947368      -2.25984875       0.00000000
Si      -2.79026916       1.63717758       0.86553265       0.00000000
Si      -0.53357309      -2.34926235      -2.38074898       0.00000000
Si       3.49301909       0.84362652      -0.02112652       0.00000000
