10
Lattice="16.28999089631971 0.0 0.0 0.0 16.28999089631971 0.0 0.0 0.0 34.46413024517268" Properties=species:S:1:pos:R:3:initial_magmoms:R:1 pbc="T T T"
Si       0.94064976      -1.99793592       0.67453233       0.00000000
Si      -1.52337401      -0.70649730      -1.59948118       0.00000000
Si       1.59480729       1.51594740      -0.79339919       0.00000000
Si      -1.02348441       1.03835718       1.88605058       0.00000000
Si       0.23566743      -0.22336848       3.46257864       0.00000000
Si       2.14667991      -1.20324456       2.54183442       0.00000000
Si      -3.53949839      -0.05769918      -0.56373009       0.00000000
Si       0.24452919       2.29820949      -2.74537969       0.00000000
Si      -0.65845809       0.13774824      -3.62297479       0.00000000
Si       2.61573417      -2.55262671      -0.88638346       0.00000000
