10
Lattice="16.28999089631971 0.0 0.0 0.0 16.28999089631971 0.0 0.0 0.0 34.46413024517268" Properties=species:S:1:pos:R:3:initial_magmoms:R:1 pbc="T T T"
Si      -1.33905429       1.34218197       1.56254940       0.00000000
Si       1.36493910      -1.34861652       1.56126733       0.00000000
Si      -1.04886423      -1.64115234      -1.56510116       0.00000000
Si       1.44319626       1.47528318      -1.43358597       0.00000000
Si      -0.19622934       2.73777300      -2.63962441       0.00000000
Si      -2.62430923      -2.82540276       0.02188818       0.00000000
Si       2.70979263      -2.74603788       0.16010321       0.00000000
Si      -2.79392559       2.66256696       0.21991229       0.00000000
Si       2.79601560       2.70463426       0.13202526       0.00000000
Si      -2.69432202      -0.00179190       2.94351408       0.00000000
