10
Lattice="16.28999089631971 0.0 0.0 0.0 16.28999089631971 0.0 0.0 0.0 34.46413024517268" Properties=species:S:1:pos:R:3:initial_magmoms:R:1 pbc="T T T"
Si      -1.87328714       1.47998301      -0.25979076       0.00000000
Si       1.93473561       0.80855808      -1.36484925       0.00000000
Si      -0.62909488      -1.98263961      -1.52359112       0.00000000
Si       0.16404519      -0.27714177       2.61134861       0.00000000
Si       2.34798033      -1.15452117       2.50075315       0.00000000
Si       0.67386354       1.98770484      -3.01599219       0.00000000
Si      -0.75491348       3.22438463      -1.63828781       0.00000000
Si      -2.05488806      -0.73278936      -3.00427438       0.00000000
Si       2.75628918       2.62934351       0.05017980       0.00000000
Si      -1.49244323      -1.95496290       2.92042310       0.00000000
