10
Lattice="16.28999089631971 0.0 0.0 0.0 16.28999089631971 0.0 0.0 0.0 34.31420841018396" Properties=species:S:1:pos:R:3:initial_magmoms:R:1 pbc="T T T"
Si      -1.31696833       1.21326291      -1.47501766       0.00000000
Si      -1.37458606      -1.33417869       1.35858262       0.00000000
Si       1.33940518       1.37578824       1.36071011       0.00000000
Si       1.35420301      -1.32965496      -1.53472099       0.00000000
Si      -2.20858519      -0.74515347      -2.68862096       0.00000000
Si       0.40622275       2.19867759      -2.78865006       0.00000000
Si       2.19089488       0.50096637      -2.93918658       0.00000000
Si      -0.35776426      -2.45057801      -2.87625428       0.00000000
Si       2.69218705      -2.70927854      -0.03204263       0.00000000
Si       2.69490748       0.02112813       2.71890155       0.00000000
