10
Lattice="16.28999089631971 0.0 0.0 0.0 16.28999089631971 0.0 0.0 0.0 34.31420841018396" Properties=species:S:1:pos:R:3:initial_magmoms:R:1 pbc="T T T"
Si       0.72539207       1.37999106       1.80842842       0.00000000
Si       2.32710632      -0.69650990       0.11227615       0.00000000
Si      -0.19834541       1.70743635      -1.77733973       0.00000000
Si      -1.34006117      -2.11179392      -0.16776226       0.00000000
Si       2.86527905       1.47585771       0.98142122       0.00000000
Si      -2.98855593       1.74524544       0.20156177       0.00000000
Si      -2.99218860      -0.92680489      -1.53463520       0.00000000
Si      -1.24943648       3.25801629      -0.35124043       0.00000000
Si      -1.67370858       0.38012715      -3.16233059       0.00000000
Si      -0.01899577      -3.42190088      -1.70425043       0.00000000
