10
Lattice="16.28999089631971 0.0 0.0 0.0 16.28999089631971 0.0 0.0 0.0 34.31420841018396" Properties=species:S:1:pos:R:3:initial_magmoms:R:1 pbc="T T T"
Si      -1.34099280      -1.34087877       1.36896611       0.00000000
Si      -1.35791811       1.35477414      -1.35681887       0.00000000
Si       1.35637056      -1.35729909      -1.35671593       0.00000000
Si       1.35294966       1.35110889       1.38368691       0.00000000
Si      -2.55862143       0.06548580       2.84365435       0.00000000
Si      -2.71073745       2.71246419       0.00418634       0.00000000
Si       0.00039096       2.71461447      -2.71319166       0.00000000
Si      -2.71451673      -0.00029322      -2.71332892       0.00000000
Si       2.71373481       2.71498914       0.00662265       0.00000000
Si       0.00037467      -2.71503284      -2.71374069       0.00000000
