10
Lattice="16.28999089631971 0.0 0.0 0.0 16.28999089631971 0.0 0.0 0.0 34.31420841018396" Properties=species:S:1:pos:R:3:initial_magmoms:R:1 pbc="T T T"
Si      -0.33234858       0.47419376      -2.22325312       0.00000000
Si       1.27785276       1.91450668       0.59586656       0.00000000
Si       0.87451236      -1.88423076       1.26482243       0.00000000
Si      -2.31790410      -0.40467781       0.61875415       0.00000000
Si      -1.18628667      -1.22028716       2.64518086       0.00000000
Si      -2.25166896      -2.01947034      -1.26561166       0.00000000
Si       2.92972392      -0.58938197       1.37555444       0.00000000
Si      -1.06267815       2.70414815      -1.81621775       0.00000000
Si       1.97752455       1.26745160       2.66776768       0.00000000
Si       3.33422091      -1.17301879      -0.99072038       0.00000000
