10
Lattice="16.28999089631971 0.0 0.0 0.0 16.28999089631971 0.0 0.0 0.0 34.31420841018396" Properties=species:S:1:pos:R:3:initial_magmoms:R:1 pbc="T T T"
Si      -2.07606276       0.12906567      -1.11157509       0.00000000
Si       0.07732863      -2.06107596       1.15326687       0.00000000
Si       1.66617378       0.67968396      -1.55906693       0.00000000
Si       0.11033217       1.35324288       2.02501983       0.00000000
Si       2.45956194       1.40191740       1.90471414       0.00000000
Si       2.77751016       2.27724426      -0.24778304       0.00000000
Si      -0.70235964       3.40902459       1.17437012       0.00000000
Si      -3.60398331      -0.21460446       0.70896626       0.00000000
Si       3.05875701      -1.22020245      -1.68983845       0.00000000
Si      -1.99433583      -1.68731820      -2.69435315       0.00000000
