10
Lattice="16.28999089631971 0.0 0.0 0.0 16.28999089631971 0.0 0.0 0.0 34.31420841018396" Properties=species:S:1:pos:R:3:initial_magmoms:R:1 pbc="T T T"
Si      -0.74590281      -0.92214432      -2.01132845       0.00000000
Si      -0.12020391       2.27840085      -0.80679612       0.00000000
Si       2.21934960      -0.61854759       0.86914507       0.00000000
Si      -1.72893915      -0.74691279       1.60202834       0.00000000
Si       1.52653590      -0.21994758       3.12770753       0.00000000
Si       1.46831544       3.29105241       0.69489742       0.00000000
Si      -2.96178264      -0.13932837      -2.37735832       0.00000000
Si       1.41198462       2.18154051       2.81486472       0.00000000
Si      -1.38792429      -3.15100728      -1.68434818       0.00000000
Si      -0.73823022      -0.70288092       3.70593658       0.00000000
