10
Lattice="16.28999089631971 0.0 0.0 0.0 16.28999089631971 0.0 0.0 0.0 34.31420841018396" Properties=species:S:1:pos:R:3:initial_magmoms:R:1 pbc="T T T"
Si      -1.34086248      -1.36215351      -1.37380442       0.00000000
Si       1.36920708       1.35690813      -1.37030436       0.00000000
Si       1.26553752      -1.45707534       1.37037299       0.00000000
Si      -1.51622433       1.12609512       1.50872796       0.00000000
Si       0.12219129       2.46179367       2.69287764       0.00000000
Si      -0.49762692      -2.56712481       2.72798109       0.00000000
Si      -2.70826952       2.69834076       0.01276489       0.00000000
Si      -2.70470852      -0.00187335      -2.73031446       0.00000000
Si      -2.70222104      -2.73437424      -0.01653946       0.00000000
Si       0.01089801       2.71510317      -2.73154977       0.00000000
