10
Lattice="16.28999089631971 0.0 0.0 0.0 16.28999089631971 0.0 0.0 0.0 34.31420841018396" Properties=species:S:1:pos:R:3:initial_magmoms:R:1 pbc="T T T"
Si       0.81269181      -2.05578171       0.85064970       0.00000000
Si      -0.41085009       1.15766514       2.03428467       0.00000000
Si       1.85474682       0.63187281      -1.42472673       0.00000000
Si      -2.28260367       0.10560807      -0.82889448       0.00000000
Si      -1.36129014       3.10656816       1.21451777       0.00000000
Si       2.73887028       2.41381962      -0.19802741       0.00000000
Si      -1.39323483      -0.51984648       3.34062731       0.00000000
Si       0.70235964      -3.40902459      -1.17437012       0.00000000
Si       0.73169793       3.73497120       0.10482997       0.00000000
Si      -3.04606710       2.28595941      -0.16930640       0.00000000
