10
Lattice="16.28999089631971 0.0 0.0 0.0 16.28999089631971 0.0 0.0 0.0 34.31420841018396" Properties=species:S:1:pos:R:3:initial_magmoms:R:1 pbc="T T T"
Si      -0.50358906      -1.79711280       1.34587263       0.00000000
Si       1.97962596      -0.70661133      -1.01106872       0.00000000
Si      -2.00793798       0.02578707      -1.19938520       0.00000000
Si       0.02290374       1.71815517       1.67003914       0.00000000
Si      -3.11604894       0.61972047       0.77687411       0.00000000
Si       2.04437871       2.45524509       0.75518752       0.00000000
Si      -1.94020416       2.73606840       0.82309538       0.00000000
Si       3.50818182       0.73278936       0.08324632       0.00000000
Si      -0.17058888      -3.59103276      -0.11999685       0.00000000
Si      -1.95831864       1.93689729      -2.53276745       0.00000000
