10
Lattice="16.28999089631971 0.0 0.0 0.0 16.28999089631971 0.0 0.0 0.0 34.31420841018396" Properties=species:S:1:pos:R:3:initial_magmoms:R:1 pbc="T T T"
Si      -0.62237574       0.80589888      -2.05356926       0.00000000
Si       0.57422250       1.94745698       1.19736066       0.00000000
Si       2.00717235      -1.32115158      -0.30285737       0.00000000
Si      -2.09298807      -0.62840304       1.10968781       0.00000000
Si       0.40913964       0.79565247       3.29255308       0.00000000
Si      -1.14254802      -2.57730606       1.92945470       0.00000000
Si       0.65684538      -1.56351420       3.01580883       0.00000000
Si       1.12304889      -3.10309839      -1.52955669       0.00000000
Si      -2.75902101       1.74141729      -1.84497307       0.00000000
Si       2.59724502      -2.06503443       1.81827661       0.00000000
