10
Lattice="16.28999089631971 0.0 0.0 0.0 16.28999089631971 0.0 0.0 0.0 34.31420841018396" Properties=species:S:1:pos:R:3:initial_magmoms:R:1 pbc="T T T"
Si       2.13664527      -0.93551841      -0.20859619       0.00000000
Si      -0.30571443       0.93256733       2.13513418       0.00000000
Si      -0.28605240       1.58689917      -1.73636854       0.00000000
Si      -1.56467079      -1.79994726      -0.23886134       0.00000000
Si      -0.78486849      -2.34273006      -2.37787303       0.00000000
Si       1.76860530      -2.18170341      -2.05785854       0.00000000
Si       1.79535348       1.93092605       2.37773577       0.00000000
Si      -1.01874402      -3.19042908       1.57083671       0.00000000
Si       2.75902101      -1.74141729       1.84497307       0.00000000
Si       0.66603294      -2.36982033       2.95466088       0.00000000
