10
Lattice="16.28999089631971 0.0 0.0 0.0 16.28999089631971 0.0 0.0 0.0 34.31420841018396" Properties=species:S:1:pos:R:3:initial_magmoms:R:1 pbc="T T T"
Si      -1.35578412       1.35772263       1.36193169       0.00000000
Si       1.36005210      -1.35880496       1.36155424       0.00000000
Si      -1.36083402      -1.35733137      -1.37238381       0.00000000
Si       1.36798533       1.36813194      -1.37358137       0.00000000
Si      -2.71264338      -2.71294379       0.00164708       0.00000000
Si      -2.71322982       2.71559187       0.00209317       0.00000000
Si      -2.71207323      -0.00037793       2.71881919       0.00000000
Si       0.00234576      -2.71475198       2.71857899       0.00000000
Si       2.72098386       2.71236645       0.00150983       0.00000000
Si       0.00219915       2.71518462       2.71875057       0.00000000
