10
Lattice="16.28999089631971 0.0 0.0 0.0 16.28999089631971 0.0 0.0 0.0 34.31420841018396" Properties=species:S:1:pos:R:3:initial_magmoms:R:1 pbc="T T T"
Si      -1.36055709      -1.33809222      -1.37294656       0.00000000
Si      -1.32817257       1.34321638       1.41923645       0.00000000
Si       1.35457866       1.37825617      -1.37678975       0.00000000
Si       1.22601798      -1.52738202       1.44332504       0.00000000
Si       2.71197549      -2.68753953      -0.01341686       0.00000000
Si       2.71041165       2.71074559      -0.00785796       0.00000000
Si      -2.72461653      -2.70021315       0.01211292       0.00000000
Si      -0.00402363      -2.69617323      -2.73412334       0.00000000
Si       2.71103067       0.01854779      -2.73474100       0.00000000
Si      -2.72486088       2.72770349       0.00470105       0.00000000
