10
Lattice="16.28999089631971 0.0 0.0 0.0 16.28999089631971 0.0 0.0 0.0 34.31420841018396" Properties=species:S:1:pos:R:3:initial_magmoms:R:1 pbc="T T T"
Si      -1.35637056       1.35729909       1.35671593       0.00000000
Si      -1.35599589      -1.35773375      -1.35702476       0.00000000
Si       1.35883035       1.35707103      -1.35729927       0.00000000
Si       1.36088289      -1.35738773       1.36275523       0.00000000
Si      -2.69736336       0.01642032       2.72568204       0.00000000
Si      -2.71428867       2.71207323      -0.00010294       0.00000000
Si      -2.71305063      -0.00089921      -2.71435834       0.00000000
Si       2.71552671       2.71270854       0.00106374       0.00000000
Si       0.00122175       2.71466334      -2.71442697       0.00000000
Si      -2.71298547      -2.71623437      -0.00006863       0.00000000
