10
Lattice="16.28999089631971 0.0 0.0 0.0 16.28999089631971 0.0 0.0 0.0 34.31420841018396" Properties=species:S:1:pos:R:3:initial_magmoms:R:1 pbc="T T T"
Si      -2.01818439      -0.29608704       1.12900672       0.00000000
Si      -0.02617803       0.55574964      -2.31473485       0.00000000
Si       0.89098155       1.91870136       1.16688962       0.00000000
Si       1.42529355      -1.76109561       0.85548801       0.00000000
Si      -1.48590864      -2.45710934      -0.99542143       0.00000000
Si       2.93296563      -0.47894229       2.13132530       0.00000000
Si       3.17554002       1.53298674       0.98663699       0.00000000
Si      -2.13863265       1.38215763       2.73477531       0.00000000
Si       0.13949127       1.61854182       3.38194164       0.00000000
Si       1.61911197       2.28094209      -2.50641413       0.00000000
