10
Lattice="16.28999089631971 0.0 0.0 0.0 16.28999089631971 0.0 0.0 0.0 34.31420841018396" Properties=species:S:1:pos:R:3:initial_magmoms:R:1 pbc="T T T"
Si      -0.83669187      -1.83062133       1.40446559       0.00000000
Si      -1.78467213       1.69771122       0.15053652       0.00000000
Si       1.81397295       1.04075181       1.31106226       0.00000000
Si      -0.18046062      -1.12747977      -2.31418582       0.00000000
Si       1.84772583      -2.38194986      -1.81892858       0.00000000
Si      -2.19089488      -0.50096637       2.93918658       0.00000000
Si       0.50854122       2.24140626       2.92069807       0.00000000
Si      -3.50786321       0.71229654       1.46416891       0.00000000
Si      -2.54865914      -2.95154438       0.06293229       0.00000000
Si      -0.91809625       3.51425799       1.49820520       0.00000000
