10
Lattice="16.28999089631971 0.0 0.0 0.0 16.28999089631971 0.0 0.0 0.0 34.31420841018396" Properties=species:S:1:pos:R:3:initial_magmoms:R:1 pbc="T T T"
Si       1.62303786       0.97951770      -1.39233410       0.00000000
Si      -1.02679128      -1.69486047      -1.33372540       0.00000000
Si       0.51474771      -0.74709198       2.28601384       0.00000000
Si      -1.69277535       1.81408698       0.13039406       0.00000000
Si       2.86554132      -0.52717698       2.00580386       0.00000000
Si      -2.03429520       1.62854388       2.52882132       0.00000000
Si      -0.09350460      -3.35848812       1.38334377       0.00000000
Si       0.30072969       2.42059626      -2.75107457       0.00000000
Si      -2.42347959      -0.31037337      -2.74826080       0.00000000
Si      -2.25204363      -3.02197745       0.15966410       0.00000000
