10
Lattice="16.28999089631971 0.0 0.0 0.0 16.28999089631971 0.0 0.0 0.0 34.31420841018396" Properties=species:S:1:pos:R:3:initial_magmoms:R:1 pbc="T T T"
Si       0.62832159      -2.22703848      -0.56827792       0.00000000
Si      -0.69281370       0.39860001       2.25856246       0.00000000
Si       1.94336442       1.38386808      -0.37385351       0.00000000
Si      -2.21934960       0.61854759      -0.86914507       0.00000000
Si      -0.80736498       2.80008810       1.94571965       0.00000000
Si      -1.00611927      -3.68955468       0.26154304       0.00000000
Si      -0.75103416       3.90960000      -0.17424765       0.00000000
Si       3.01801572       0.95560398      -2.42522666       0.00000000
Si       2.72036484      -2.89975032       0.41468744       0.00000000
Si       1.50860061       3.65158269      -0.66730878       0.00000000
