10
Lattice="16.28999089631971 0.0 0.0 0.0 16.28999089631971 0.0 0.0 0.0 34.31420841018396" Properties=species:S:1:pos:R:3:initial_magmoms:R:1 pbc="T T T"
Si       0.96242949      -0.37090701       2.12638406       0.00000000
Si      -2.26476612      -0.48293334       0.57822905       0.00000000
Si       0.69281370      -0.39860001      -2.25856246       0.00000000
Si      -0.11455128       2.40148809      -0.31284281       0.00000000
Si      -0.74279142       0.72226602       3.32724476       0.00000000
Si      -1.52653590       0.21994758      -3.12770753       0.00000000
Si      -2.59776630       1.31098662       2.04409854       0.00000000
Si      -3.25547505      -0.52696521      -1.52567919       0.00000000
Si      -2.09417724       3.10809942       0.69822590       0.00000000
Si       2.63617812       0.98526807      -2.63241597       0.00000000
