10
Lattice="16.28999089631971 0.0 0.0 0.0 16.28999089631971 0.0 0.0 0.0 34.31420841018396" Properties=species:S:1:pos:R:3:initial_magmoms:R:1 pbc="T T T"
Si      -1.76730210      -1.34990343      -0.64253391       0.00000000
Si      -0.71607582       2.18807280       0.28127372       0.00000000
Si       1.65967407      -0.58411053      -1.51998303       0.00000000
Si       0.65689425      -1.07745318       1.99568116       0.00000000
Si       0.84911625      -3.21455457       1.08388351       0.00000000
Si       1.60060653      -2.91439503      -1.13116851       0.00000000
Si      -3.47252301      -0.25673040       0.55832680       0.00000000
Si       1.28197413       3.23594334       1.24049364       0.00000000
Si      -2.81009016       1.71374058       1.69879447       0.00000000
Si       3.08428344       1.50882867       1.39178507       0.00000000
