10
Lattice="16.28999089631971 0.0 0.0 0.0 16.28999089631971 0.0 0.0 0.0 34.31420841018396" Properties=species:S:1:pos:R:3:initial_magmoms:R:1 pbc="T T T"
Si      -1.05982740      -1.71478314      -1.20068369       0.00000000
Si       1.22699538      -1.44430398       1.51483932       0.00000000
Si      -1.49410251       1.25252181       1.48734333       0.00000000
Si       1.35415512       1.31522202      -1.66584736       0.00000000
Si       2.53560366       2.58452253       0.02921856       0.00000000
Si       2.53894311      -2.83320567       0.12875041       0.00000000
Si       0.62551971      -3.62292858      -1.14819455       0.00000000
Si      -1.55714481      -0.88514973      -3.41051994       0.00000000
Si       2.58075954      -0.11323179       2.88852364       0.00000000
Si      -0.13354542       2.60203428       2.88560693       0.00000000
