10
Lattice="16.28999089631971 0.0 0.0 0.0 16.28999089631971 0.0 0.0 0.0 34.31420841018396" Properties=species:S:1:pos:R:3:initial_magmoms:R:1 pbc="T T T"
Si       1.35659862       1.35832536       1.35596102       0.00000000
Si       1.35711990      -1.35713619      -1.35781399       0.00000000
Si      -1.35762489       1.35759231      -1.35716202       0.00000000
Si      -1.35770634      -1.35834165       1.35702476       0.00000000
Si       0.00392589       2.70967860       2.71356912       0.00000000
Si       2.71169856      -0.00074934       2.71559366       0.00000000
Si       2.71360449      -0.00026064      -2.71425540       0.00000000
Si       0.00024435       2.71332756      -2.71480443       0.00000000
Si       2.71450044       2.71474479      -0.00106374       0.00000000
Si       2.71458189      -2.71494027      -0.00041177       0.00000000
