10
Lattice="16.28999089631971 0.0 0.0 0.0 16.28999089631971 0.0 0.0 0.0 34.31420841018396" Properties=species:S:1:pos:R:3:initial_magmoms:R:1 pbc="T T T"
Si      -1.35663134       1.35684297      -1.35709339       0.00000000
Si       1.35648512       1.35791811       1.35767673       0.00000000
Si      -1.35664763      -1.35749294       1.35801987       0.00000000
Si       1.35726052      -1.35752389      -1.35750516       0.00000000
Si       2.71302509      -0.00011403      -2.71425540       0.00000000
Si      -2.71432139      -0.00032580      -2.71408383       0.00000000
Si      -2.71309964       0.00221544       2.71597111       0.00000000
Si      -0.00148935       2.71498914      -2.71422109       0.00000000
Si      -2.71464719      -2.71501301      -0.00024020       0.00000000
Si      -0.00143490      -2.71613583      -2.71374069       0.00000000
