10
Lattice="16.28999089631971 0.0 0.0 0.0 16.28999089631971 0.0 0.0 0.0 34.31420841018396" Properties=species:S:1:pos:R:3:initial_magmoms:R:1 pbc="T T T"
Si       1.35747828       1.35764118      -1.35826007       0.00000000
Si      -1.35814617      -1.35707103      -1.35822576       0.00000000
Si      -1.35811359       1.35865116       1.35949538       0.00000000
Si       1.36127385      -1.36234899       1.35530905       0.00000000
Si      -2.68323993      -0.02202408       2.71888782       0.00000000
Si       2.71394658      -2.71370223      -0.00229905       0.00000000
Si      -2.71503801       2.71477737      -0.00164708       0.00000000
Si      -0.00027693      -2.71443528      -2.71542209       0.00000000
Si       2.71428867       0.00052128      -2.71579954       0.00000000
Si       2.70532917      -0.01337409       2.72506438       0.00000000
