10
Lattice="16.28999089631971 0.0 0.0 0.0 16.28999089631971 0.0 0.0 0.0 34.31420841018396" Properties=species:S:1:pos:R:3:initial_magmoms:R:1 pbc="T T T"
Si       1.36055709       1.33809222       1.37294656       0.00000000
Si       1.35653346      -1.35808101      -1.36117678       0.00000000
Si      -1.36088289       1.35738773      -1.36275523       0.00000000
Si      -1.36405944      -1.36212093       1.38505948       0.00000000
Si       2.58657507      -0.18928980       2.81627160       0.00000000
Si       2.71386513      -2.71554300      -0.00236768       0.00000000
Si       2.71513575       2.71634840      -0.00384319       0.00000000
Si      -2.71694394      -2.71497285      -0.00168140       0.00000000
Si      -2.71725345       2.71468682      -0.00603930       0.00000000
Si       2.71358820      -0.00088005      -2.72005451       0.00000000
