10
Lattice="16.28999089631971 0.0 0.0 0.0 16.28999089631971 0.0 0.0 0.0 34.31420841018396" Properties=species:S:1:pos:R:3:initial_magmoms:R:1 pbc="T T T"
Si      -2.01940614      -0.14577921       1.32881846       0.00000000
Si       1.27614231       1.10042208      -1.78718792       0.00000000
Si      -1.12458015      -1.43490465      -1.72662330       0.00000000
Si       1.85236848       1.07074170       1.37215733       0.00000000
Si       2.97896859      -1.08571221       1.47918341       0.00000000
Si       3.20365656       1.91865249      -0.63821032       0.00000000
Si      -1.42363197      -0.99046458       3.48114407       0.00000000
Si      -2.29732983      -3.20378688      -0.62108752       0.00000000
Si      -3.53709657       1.67234769       1.10786915       0.00000000
Si      -3.69027144      -1.74838941       0.55661109       0.00000000
