10
Lattice="16.28999089631971 0.0 0.0 0.0 16.28999089631971 0.0 0.0 0.0 34.31420841018396" Properties=species:S:1:pos:R:3:initial_magmoms:R:1 pbc="T T T"
Si      -1.35224238       1.35852084      -1.35894636       0.00000000
Si      -1.35514200      -1.35814617       1.35712770       0.00000000
Si       1.35922554       1.35710361       1.35723064       0.00000000
Si       1.35901214      -1.36044306      -1.35822576       0.00000000
Si      -2.71364655       0.00027693       2.71418677       0.00000000
Si      -2.71283205      -2.71531494       0.00013726       0.00000000
Si       0.00148935      -2.71498914       2.71422109       0.00000000
Si       0.00177254       2.71507059       2.71442697       0.00000000
Si      -2.71462395       2.71495656       0.00034314       0.00000000
Si       2.71451444      -2.71510317      -0.00003431       0.00000000
