10
Lattice="16.28999089631971 0.0 0.0 0.0 16.28999089631971 0.0 0.0 0.0 34.31420841018396" Properties=species:S:1:pos:R:3:initial_magmoms:R:1 pbc="T T T"
Si       0.02311551      -0.81265923       2.16495325       0.00000000
Si      -1.27969353       1.93525200      -0.17359568       0.00000000
Si      -0.83833227      -1.46927655      -1.62580810       0.00000000
Si       2.23078518       0.85823865       0.18124775       0.00000000
Si       0.43456833       1.26302886       3.22968941       0.00000000
Si       1.63150866       2.63126573       1.67731376       0.00000000
Si      -3.42705762       1.15004142       0.38744194       0.00000000
Si      -0.30454155      -3.56923674      -0.70752506       0.00000000
Si       1.57268547      -2.61529434       2.17562497       0.00000000
Si       2.79814959       1.90966041      -1.76865823       0.00000000
