10
Lattice="16.28999089631971 0.0 0.0 0.0 16.28999089631971 0.0 0.0 0.0 34.31420841018396" Properties=species:S:1:pos:R:3:initial_magmoms:R:1 pbc="T T T"
Si       1.27303092       1.15442343       1.59851941       0.00000000
Si       1.81509696      -0.84274686      -1.35997578       0.00000000
Si      -0.97497279       1.93158675      -1.18967427       0.00000000
Si      -1.49219658      -1.43669655       1.36522384       0.00000000
Si       1.08023877       3.22643554      -1.07894226       0.00000000
Si       2.77956270       2.28283173       0.22506812       0.00000000
Si       1.17239130      -0.84341475      -3.62097455       0.00000000
Si      -0.08506638       2.59876747       2.90702728       0.00000000
Si       2.76785019      -2.76190434      -0.27046474       0.00000000
Si       2.64362265      -0.13481604       2.93083792       0.00000000
