10
Lattice="16.28999089631971 0.0 0.0 0.0 16.28999089631971 0.0 0.0 0.0 34.31420841018396" Properties=species:S:1:pos:R:3:initial_magmoms:R:1 pbc="T T T"
Si       1.35664763       1.35749294      -1.35801987       0.00000000
Si       1.35714847      -1.36024011       1.35578945       0.00000000
Si      -1.35799956      -1.35752007      -1.35826007       0.00000000
Si      -1.35645201       1.35970838       1.35795124       0.00000000
Si      -0.00061902       2.69219780       2.72688304       0.00000000
Si       2.70726998       0.00342742       2.71693191       0.00000000
Si       0.00094482      -2.70608733       2.72132413       0.00000000
Si       2.71313275       2.71541105      -0.00034314       0.00000000
Si       2.71172367      -2.71714824      -0.00147551       0.00000000
Si      -0.00115659      -2.71450926      -2.71490737       0.00000000
