10
Lattice="16.28999089631971 0.0 0.0 0.0 16.28999089631971 0.0 0.0 0.0 34.31420841018396" Properties=species:S:1:pos:R:3:initial_magmoms:R:1 pbc="T T T"
Si       0.01783755       0.28079073      -2.31397994       0.00000000
Si       1.02799674       1.95080895       0.90771426       0.00000000
Si       1.44466236      -1.53029889       1.26221455       0.00000000
Si      -2.33295606       0.06087573      -2.03376995       0.00000000
Si      -2.58059664      -1.92419109       0.27633247       0.00000000
Si       0.83072484       1.31455413       3.20848322       0.00000000
Si      -2.62293435      -0.33469434       2.59631740       0.00000000
Si       3.02075800       2.11820499      -0.38174578       0.00000000
Si       0.84882303      -1.07263134       3.45908003       0.00000000
Si       3.73178555      -0.08446365      -0.70711329       0.00000000
