10
Lattice="16.28999089631971 0.0 0.0 0.0 16.28999089631971 0.0 0.0 0.0 34.31420841018396" Properties=species:S:1:pos:R:3:initial_magmoms:R:1 pbc="T T T"
Si       2.35079361       0.21991500      -0.28020998       0.00000000
Si      -0.51474771       0.74709198      -2.28601384       0.00000000
Si      -0.60825231      -2.61139614      -0.90267007       0.00000000
Si      -2.54383011       0.20580786       1.43217292       0.00000000
Si      -0.24764058      -1.98506682       2.31010243       0.00000000
Si       2.33295606      -0.06087573       2.03376995       0.00000000
Si      -0.68725881       2.44977165       1.98998500       0.00000000
Si      -2.82805803      -1.94396715       0.26051362       0.00000000
Si      -2.54904291       2.37563586       0.24280747       0.00000000
Si       2.34716094      -2.45213533      -2.01640696       0.00000000
