10
Lattice="16.28999089631971 0.0 0.0 0.0 16.28999089631971 0.0 0.0 0.0 34.31420841018396" Properties=species:S:1:pos:R:3:initial_magmoms:R:1 pbc="T T T"
Si      -1.33208217       1.76530495      -0.66651956       0.00000000
Si      -1.07582418      -0.61616273       1.95783257       0.00000000
Si       0.08167806      -1.42027933      -1.90920931       0.00000000
Si       2.13967521       1.02736795       0.19624307       0.00000000
Si      -1.28974446       0.17580820      -2.98650448       0.00000000
Si      -0.14429682       3.34509286       0.64068094       0.00000000
Si       2.73551454       0.56970040      -2.00062241       0.00000000
Si       0.71454456      -1.76925757       2.92786147       0.00000000
Si      -2.81015532      -1.86351151       0.94508246       0.00000000
Si       2.40342660      -1.73589565      -1.90814557       0.00000000
