10
Lattice="16.28999089631971 0.0 0.0 0.0 16.28999089631971 0.0 0.0 0.0 34.31420841018396" Properties=species:S:1:pos:R:3:initial_magmoms:R:1 pbc="T T T"
Si       0.59583933      -0.45766755      -2.19686548       0.00000000
Si       1.53835334      -0.90407382       1.56462584       0.00000000
Si      -2.13967521      -1.02736795      -0.19624307       0.00000000
Si      -0.01809819       2.38718547      -0.25059680       0.00000000
Si      -2.28397203       2.31772491       0.44443788       0.00000000
Si       0.26375139      -2.76326360      -2.10438864       0.00000000
Si       2.79945998       1.04589945       1.89356202       0.00000000
Si       2.88377702       0.01127268      -2.06825575       0.00000000
Si       0.17049114      -1.16528397       3.45139364       0.00000000
Si      -3.47175738       0.73793700      -0.86276262       0.00000000
