10
Lattice="16.28999089631971 0.0 0.0 0.0 16.28999089631971 0.0 0.0 0.0 34.31420841018396" Properties=species:S:1:pos:R:3:initial_magmoms:R:1 pbc="T T T"
Si       1.07582418       0.61616273      -1.95783257       0.00000000
Si       1.79036874      -1.15309484       0.97002890       0.00000000
Si      -1.73433114      -1.24734878      -1.01275011       0.00000000
Si      -0.82774377       1.88535573       1.24577803       0.00000000
Si      -0.25625799       2.38146768      -2.62435213       0.00000000
Si      -2.28747438      -1.12750325       2.56509145       0.00000000
Si      -3.46889034      -0.94629329       0.52068409       0.00000000
Si       3.38599053       0.47824671       1.68980414       0.00000000
Si       0.81754623       3.61054818       1.05409876       0.00000000
Si       1.22300433      -2.20451660       2.91993488       0.00000000
