10
Lattice="16.28999089631971 0.0 0.0 0.0 16.28999089631971 0.0 0.0 0.0 34.31420841018396" Properties=species:S:1:pos:R:3:initial_magmoms:R:1 pbc="T T T"
Si       1.36786220       0.26121015      -1.88676780       0.00000000
Si       1.48337784      -0.50155281       1.80739900       0.00000000
Si      -1.59562179      -1.63134154      -0.71977524       0.00000000
Si      -0.66622842       2.25143601       0.48461984       0.00000000
Si      -0.17049114       1.16528397      -3.45139364       0.00000000
Si      -2.16298620      -2.68276330       1.23013074       0.00000000
Si       1.84724269      -2.80080064       1.72147617       0.00000000
Si       2.62896884       2.21118342      -1.55783162       0.00000000
Si       2.26711907      -1.89049915      -2.39008889       0.00000000
Si      -3.38599053      -0.47824671      -1.68980414       0.00000000
