10
Lattice="16.28999089631971 0.0 0.0 0.0 16.28999089631971 0.0 0.0 0.0 34.31420841018396" Properties=species:S:1:pos:R:3:initial_magmoms:R:1 pbc="T T T"
Si       1.35648459       1.35687555      -1.35644142       0.00000000
Si      -1.35711990       1.35713619       1.35781399       0.00000000
Si      -1.35656604      -1.35785295      -1.35819144       0.00000000
Si       1.35746199      -1.35780408       1.35740221       0.00000000
Si       0.00118917       2.71319724      -2.71418677       0.00000000
Si       2.71453302      -0.00105885       2.71422109       0.00000000
Si      -0.00052128       2.71546155       2.71377500       0.00000000
Si       2.71521720       2.71406061      -0.00037746       0.00000000
Si      -2.71474479       2.71472850       0.00065197       0.00000000
Si      -2.71482624      -0.00120546       2.71483874       0.00000000
