10
Lattice="16.28999089631971 0.0 0.0 0.0 16.28999089631971 0.0 0.0 0.0 34.31420841018396" Properties=species:S:1:pos:R:3:initial_magmoms:R:1 pbc="T T T"
Si      -1.35434190       1.27715229       1.41384912       0.00000000
Si      -1.35748221      -1.33605693      -1.35626985       0.00000000
Si       1.36135856       1.37222073      -1.35726496       0.00000000
Si       1.22170439      -1.51811397       1.38691245       0.00000000
Si       2.20459412       0.16724943       2.74452055       0.00000000
Si      -2.58998361      -0.23643306       2.72990269       0.00000000
Si      -0.00267482      -2.69635338      -2.71432403       0.00000000
Si       2.71245116       0.01824480      -2.71542209       0.00000000
Si      -2.71722480       0.01773981      -2.71521620       0.00000000
Si      -2.71642659      -2.71956663       0.01290215       0.00000000
