10
Lattice="16.28999089631971 0.0 0.0 0.0 16.28999089631971 0.0 0.0 0.0 34.31420841018396" Properties=species:S:1:pos:R:3:initial_magmoms:R:1 pbc="T T T"
Si      -1.51519806      -1.17628461      -1.34851483       0.00000000
Si       1.23564171       1.51358535      -1.31605357       0.00000000
Si      -0.94861557       1.66239450       1.42685421       0.00000000
Si       1.46642484      -1.17020844       1.49682092       0.00000000
Si      -0.27269460      -2.68297929       2.04962313       0.00000000
Si      -0.12644298      -2.48313357      -2.71700054       0.00000000
Si       2.51751591      -2.72078838       0.07072162       0.00000000
Si       2.58998361       0.23643306      -2.72990269       0.00000000
Si       2.87576234       2.43786366       0.41787866       0.00000000
Si      -3.13823592      -2.15580231       0.04381927       0.00000000
