10
Lattice="16.28999089631971 0.0 0.0 0.0 16.28999089631971 0.0 0.0 0.0 34.31420841018396" Properties=species:S:1:pos:R:3:initial_magmoms:R:1 pbc="T T T"
Si       1.16074395      -1.92373497       0.70752506       0.00000000
Si       1.39188276       0.75885336      -1.77006512       0.00000000
Si      -2.04853266      -0.91639395      -0.83568870       0.00000000
Si      -0.62392329       1.17654525       2.07607940       0.00000000
Si      -0.40198833       1.04549220      -3.33324975       0.00000000
Si       0.17695827      -3.63239307      -0.62712682       0.00000000
Si       0.34723764      -2.36892438       2.92147902       0.00000000
Si       1.25507934       2.36654604       2.66683314       0.00000000
Si      -3.70820673      -0.33228342       0.68429433       0.00000000
Si       2.36368130       2.81456991      -0.99349983       0.00000000
