10
Lattice="16.28999089631971 0.0 0.0 0.0 16.28999089631971 0.0 0.0 0.0 34.31420841018396" Properties=species:S:1:pos:R:3:initial_magmoms:R:1 pbc="T T T"
Si      -0.03725523      -0.18699291       2.35375013       0.00000000
Si      -1.79048277       0.40338927      -1.52760078       0.00000000
Si       1.60928910       1.77489324      -0.14381093       0.00000000
Si       0.63180765      -2.15503668      -0.93073911       0.00000000
Si      -0.71583147      -0.02487483      -3.57897394       0.00000000
Si      -0.09632277      -2.51727741       2.74256464       0.00000000
Si       2.32930710       1.67195673      -2.40865289       0.00000000
Si       0.74578878      -1.80432927      -3.30198949       0.00000000
Si       2.01127743       0.72940104       3.18943883       0.00000000
Si      -2.22524658       2.67110388      -1.82105606       0.00000000
