10
Lattice="16.28999089631971 0.0 0.0 0.0 16.28999089631971 0.0 0.0 0.0 34.31420841018396" Properties=species:S:1:pos:R:3:initial_magmoms:R:1 pbc="T T T"
Si      -1.39188276      -0.75885336       1.77006512       0.00000000
Si      -1.79387109       0.28663884      -1.56318464       0.00000000
Si       0.97179854       2.05571655       0.77656528       0.00000000
Si       1.76038604      -1.63649340      -0.36994169       0.00000000
Si      -0.23113881      -2.68258833       2.47759017       0.00000000
Si      -2.65193055       2.46330864      -0.81074226       0.00000000
Si       2.07044990      -2.55013434       1.85523303       0.00000000
Si       3.24994364       1.65768669       1.16054149       0.00000000
Si       0.89734509      -3.13294167      -2.02079918       0.00000000
Si       0.57353085       3.73519926      -0.86615973       0.00000000
