10
Lattice="16.28999089631971 0.0 0.0 0.0 16.28999089631971 0.0 0.0 0.0 34.31420841018396" Properties=species:S:1:pos:R:3:initial_magmoms:R:1 pbc="T T T"
Si       1.35570267       1.35456237       1.35860321       0.00000000
Si      -1.35790182      -1.35641943       1.35702476       0.00000000
Si      -1.35755973       1.35780408      -1.35647573       0.00000000
Si       1.35783666      -1.35782037      -1.35712770       0.00000000
Si      -2.71057455      -0.00506619       2.71463286       0.00000000
Si      -2.71425609      -0.00141723      -2.71374069       0.00000000
Si      -0.00089595      -2.71500543      -2.71319166       0.00000000
Si      -0.00192222       2.71489140      -2.71353480       0.00000000
Si      -2.71450044      -2.71474479       0.00106374       0.00000000
Si      -2.71437012       2.71492398       0.00106374       0.00000000
