10
Lattice="16.28999089631971 0.0 0.0 0.0 16.28999089631971 0.0 0.0 0.0 34.31420841018396" Properties=species:S:1:pos:R:3:initial_magmoms:R:1 pbc="T T T"
Si       1.83453975      -0.05787837       1.45708505       0.00000000
Si       0.67916268      -1.35322659      -1.79820278       0.00000000
Si      -1.39092165      -1.32976899       1.51250252       0.00000000
Si       0.01824480       2.16569034      -1.41199615       0.00000000
Si       0.84924657       1.83453093       2.55102262       0.00000000
Si       3.60006461       0.28264779      -0.09505041       0.00000000
Si      -0.53286219      -3.50643879       0.76006014       0.00000000
Si       2.88034634      -0.62977140      -2.13403613       0.00000000
Si      -0.56145114      -0.53983431      -3.59942522       0.00000000
Si      -1.54217430       1.48449141      -3.03577971       0.00000000
