10
Lattice="16.28999089631971 0.0 0.0 0.0 16.28999089631971 0.0 0.0 0.0 34.31420841018396" Properties=species:S:1:pos:R:3:initial_magmoms:R:1 pbc="T T T"
Si       1.87608672       1.19961189       0.67297063       0.00000000
Si      -1.54956996       1.80263511      -0.01067172       0.00000000
Si       0.37206360      -0.89479341      -2.32084278       0.00000000
Si      -0.79412121      -1.21329549       2.18475256       0.00000000
Si      -1.87722702      -0.95394240      -2.88315003       0.00000000
Si       2.61223182       2.26950651      -1.28232268       0.00000000
Si      -1.57268547       2.61529434      -2.17562497       0.00000000
Si      -2.79217116      -2.26116603       1.22553264       0.00000000
Si       1.35039213       2.56126041       2.52391438       0.00000000
Si       3.61747536      -0.17855469       1.37479953       0.00000000
