10
Lattice="16.28999089631971 0.0 0.0 0.0 16.28999089631971 0.0 0.0 0.0 34.31420841018396" Properties=species:S:1:pos:R:3:initial_magmoms:R:1 pbc="T T T"
Si       0.72001800      -0.10293651      -2.26484196       0.00000000
Si       1.79387109      -0.28663884       1.56318464       0.00000000
Si      -1.60928910      -1.77489324       0.14381093       0.00000000
Si      -0.85805946       2.17666980       0.75244238       0.00000000
Si       0.40198833      -1.04549220       3.33324975       0.00000000
Si       1.21202487       2.15321220      -2.55826292       0.00000000
Si      -1.64654433      -1.96188615       2.49756105       0.00000000
Si       0.53286219       3.50643879      -0.76006014       0.00000000
Si      -3.10735008       2.11752081       0.19013514       0.00000000
Si       2.28358337      -1.94680161      -2.29843559       0.00000000
