10
Lattice="16.28999089631971 0.0 0.0 0.0 16.28999089631971 0.0 0.0 0.0 34.31420841018396" Properties=species:S:1:pos:R:3:initial_magmoms:R:1 pbc="T T T"
Si      -0.88120985      -1.56296034      -1.55477765       0.00000000
Si       0.40763281      -1.47277890       1.84082105       0.00000000
Si       2.23124619       0.83111580      -0.23433186       0.00000000
Si      -1.56356537       1.84386510       0.03359363       0.00000000
Si       1.93634832      -2.90424636       0.58938117       0.00000000
Si      -3.14708369      -1.63242090      -0.85974297       0.00000000
Si       1.27067376       0.02366937       3.49167854       0.00000000
Si       3.04638150       0.73503738       2.04358382       0.00000000
Si      -2.28358337       1.94680161       2.29843559       0.00000000
Si      -2.99578217       1.68599871      -1.89514048       0.00000000
