10
Lattice="16.28999089631971 0.0 0.0 0.0 16.28999089631971 0.0 0.0 0.0 34.31420841018396" Properties=species:S:1:pos:R:3:initial_magmoms:R:1 pbc="T T T"
Si      -0.67523679      -2.24282349       0.35474048       0.00000000
Si       2.21587983      -0.78281595       0.36602987       0.00000000
Si      -0.44882208       0.89394633      -2.19741451       0.00000000
Si      -1.25089281       1.16046702       1.72367228       0.00000000
Si       1.57385835      -3.01167891       0.69301014       0.00000000
Si      -1.03767300       3.30514326       0.81026186       0.00000000
Si      -1.23372315       3.02590008      -1.51912517       0.00000000
Si       3.23248986      -0.95252517      -1.75311389       0.00000000
Si       2.96178264       0.13932837       2.37735832       0.00000000
Si      -2.17331569      -0.42995826      -3.18700252       0.00000000
