10
Lattice="16.28999089631971 0.0 0.0 0.0 16.28999089631971 0.0 0.0 0.0 34.31420841018396" Properties=species:S:1:pos:R:3:initial_magmoms:R:1 pbc="T T T"
Si      -1.35414046      -1.33822350       1.38956151       0.00000000
Si       1.36384767       1.37449874       1.38582126       0.00000000
Si      -1.33798404       1.37962358      -1.50267836       0.00000000
Si       1.19946528      -1.59534486      -1.43083123       0.00000000
Si       2.47805109       0.01268569      -2.69964582       0.00000000
Si      -2.69218705       2.70927854       0.03204263       0.00000000
Si      -2.69852714      -2.70863604       0.00826287       0.00000000
Si       2.72329704      -2.70283680       0.01461100       0.00000000
Si       0.00584811      -2.69931816       2.75084123       0.00000000
Si       2.71021617       2.74962887       0.00363045       0.00000000
