10
Lattice="16.28999089631971 0.0 0.0 0.0 16.28999089631971 0.0 0.0 0.0 34.31420841018396" Properties=species:S:1:pos:R:3:initial_magmoms:R:1 pbc="T T T"
Si       1.35522776       1.35493704       1.35668162       0.00000000
Si      -1.35765249       1.35757602      -1.35675024       0.00000000
Si       1.35823815      -1.35804843      -1.35750516       0.00000000
Si      -1.35936294      -1.36089918       1.35805419       0.00000000
Si       0.00065256       2.71184517       2.71394657       0.00000000
Si      -0.00128316       2.71344238      -2.71360343       0.00000000
Si      -2.71449546       2.71456521      -0.00010294       0.00000000
Si       2.71516420       2.71421662       0.00044608       0.00000000
Si       2.71630450      -0.00026064      -2.71422109       0.00000000
Si      -2.71506561      -2.71546155      -0.00054903       0.00000000
