10
Lattice="16.28999089631971 0.0 0.0 0.0 16.28999089631971 0.0 0.0 0.0 34.31420841018396" Properties=species:S:1:pos:R:3:initial_magmoms:R:1 pbc="T T T"
Si      -1.50667839       1.19058723       1.36625529       0.00000000
Si       1.34622189       1.36744776      -1.37469659       0.00000000
Si      -1.37065689      -1.34601012      -1.37425050       0.00000000
Si       1.49833791      -1.27953063       1.46477143       0.00000000
Si       2.71596654      -2.68589520      -0.00991681       0.00000000
Si       2.71070487       2.71316466       0.01056878       0.00000000
Si       2.69904123       0.00975771      -2.73570179       0.00000000
Si      -2.73692037      -2.69963581      -0.01770614       0.00000000
Si      -2.72838278       2.70870120      -0.02065717       0.00000000
Si      -0.01669725      -2.70491703      -2.73470668       0.00000000
