10
Lattice="16.28999089631971 0.0 0.0 0.0 16.28999089631971 0.0 0.0 0.0 34.31420841018396" Properties=species:S:1:pos:R:3:initial_magmoms:R:1 pbc="T T T"
Si      -2.06907435       0.09547569       1.12018796       0.00000000
Si       1.41463989       0.37147716       1.85303692       0.00000000
Si       0.93007755      -1.89379395      -1.11243294       0.00000000
Si      -0.04166982       1.40859371      -1.93195964       0.00000000
Si       2.05939809       2.40695243      -1.68935805       0.00000000
Si       3.43220526      -0.46973844       1.07043233       0.00000000
Si      -1.59464439      -1.12047507       3.09751101       0.00000000
Si      -0.75469941      -2.71440270      -2.49625711       0.00000000
Si       3.59728812       0.68206607      -1.02476009       0.00000000
Si      -3.67878748      -1.00929582      -0.13869811       0.00000000
