10
Lattice="16.28999089631971 0.0 0.0 0.0 16.28999089631971 0.0 0.0 0.0 34.474598006748145" Properties=species:S:1:pos:R:3:initial_magmoms:R:1 pbc="T T T"
Si       1.35381099       1.36335897       1.37125548       0.00000000
Si      -1.36026495      -1.35331944       1.37804698       0.00000000
Si      -1.40880915       1.37989332      -1.32424245       0.00000000
Si       1.49065840      -1.26326995      -1.41765832       0.00000000
Si      -2.70247950      -2.70602054       0.02145011       0.00000000
Si       2.67933644       0.33519933      -2.70927885       0.00000000
Si       2.73371246      -2.70661038      -0.00309927       0.00000000
Si      -0.00369084      -2.70934404       2.73383025       0.00000000
Si       2.70510722       2.74211199      -0.00177200       0.00000000
Si       2.71408301       0.00377928       2.73393368       0.00000000
