10
Lattice="16.28999089631971 0.0 0.0 0.0 16.28999089631971 0.0 0.0 0.0 34.474598006748145" Properties=species:S:1:pos:R:3:initial_magmoms:R:1 pbc="T T T"
Si      -1.35747828      -1.35696661      -1.35612802       0.00000000
Si       1.35422028      -1.35581737       1.36150606       0.00000000
Si       1.35734796       1.35808753      -1.35626592       0.00000000
Si      -1.35819504       1.35808753       1.36071314       0.00000000
Si      -2.71436360       0.00000977      -2.71370397       0.00000000
Si      -2.71360123       2.71463728       0.00027580       0.00000000
Si       0.00060273       2.71491421      -2.71373845       0.00000000
Si       0.00070047      -2.71513642      -2.71377292       0.00000000
Si       2.71616202      -2.71331194       0.00217190       0.00000000
Si       2.71554300       0.00004072      -2.71404872       0.00000000
