10
Lattice="16.28999089631971 0.0 0.0 0.0 16.28999089631971 0.0 0.0 0.0 34.474598006748145" Properties=species:S:1:pos:R:3:initial_magmoms:R:1 pbc="T T T"
Si      -2.28321359       0.34795440      -0.62288738       0.00000000
Si       0.76724271       1.94737569       1.17148197       0.00000000
Si       1.53577233       0.48630537      -1.82112166       0.00000000
Si       0.05512536      -2.15049177       1.14893557       0.00000000
Si       0.84659130      -3.39139881      -0.70417853       0.00000000
Si      -0.47470689      -2.61736317      -2.56987587       0.00000000
Si       0.36022077       3.70700846      -0.34619411       0.00000000
Si      -2.17180628       1.01083736      -2.92530917       0.00000000
Si       1.11449664       2.77559513      -2.36461400       0.00000000
Si      -2.24815751      -2.88302049       1.13824844       0.00000000
