10
Lattice="16.28999089631971 0.0 0.0 0.0 16.28999089631971 0.0 0.0 0.0 34.474598006748145" Properties=species:S:1:pos:R:3:initial_magmoms:R:1 pbc="T T T"
Si       1.24325280      -1.46683305       1.32160169       0.00000000
Si      -1.49086080      -1.12552497      -1.40521440       0.00000000
Si      -1.46509002       1.28138769       1.30229246       0.00000000
Si       1.71320301       0.89748126      -1.35182042       0.00000000
Si       0.41358681       2.12602419      -2.92492448       0.00000000
Si       2.61654867      -0.09793548       2.67694024       0.00000000
Si      -0.10235007       2.61705366       2.67842265       0.00000000
Si       2.42142705      -2.87508237      -0.16960822       0.00000000
Si      -2.67953884      -2.72399425      -0.11359386       0.00000000
Si       2.71187775       2.74667319      -0.08737936       0.00000000
