10
Lattice="16.28999089631971 0.0 0.0 0.0 16.28999089631971 0.0 0.0 0.0 34.474598006748145" Properties=species:S:1:pos:R:3:initial_magmoms:R:1 pbc="T T T"
Si      -1.71320301      -0.89748126       1.35182042       0.00000000
Si      -1.29961620       1.22854293      -1.57310406       0.00000000
Si       0.99867474       1.84919193       1.26444105       0.00000000
Si       1.74345354      -1.95532128      -0.10034841       0.00000000
Si       0.63757431       1.48458915      -3.01565995       0.00000000
Si       2.27387223       0.36761643       2.65678121       0.00000000
Si      -0.46995021      -2.36431431       2.67342211       0.00000000
Si      -3.20406381      -2.02300623      -0.05339398       0.00000000
Si       2.88411192       1.78520481      -1.86606936       0.00000000
Si      -0.03877020      -2.57755041      -2.92864601       0.00000000
