10
Lattice="16.28999089631971 0.0 0.0 0.0 16.28999089631971 0.0 0.0 0.0 34.474598006748145" Properties=species:S:1:pos:R:3:initial_magmoms:R:1 pbc="T T T"
Si       1.35158130      -1.35721764       1.35778280       0.00000000
Si       1.35527913       1.35729909      -1.35692094       0.00000000
Si      -1.35935163      -1.35795069      -1.35716226       0.00000000
Si      -1.35948195       1.35772263       1.36295399       0.00000000
Si      -0.02006928      -2.69252523       2.70367186       0.00000000
Si       2.71313208      -0.00065160      -2.71429004       0.00000000
Si       2.71272483      -2.71524978       0.00010342       0.00000000
Si       2.71396287       2.71463076      -0.00017237       0.00000000
Si      -0.00237834       2.71505430      -2.71456584       0.00000000
Si      -0.00205254      -2.71541268      -2.71442794       0.00000000
