10
Lattice="16.28999089631971 0.0 0.0 0.0 16.28999089631971 0.0 0.0 0.0 34.474598006748145" Properties=species:S:1:pos:R:3:initial_magmoms:R:1 pbc="T T T"
Si      -0.52564572       2.27968776      -0.01279008       0.00000000
Si      -0.81938700      -1.39828473       1.69890914       0.00000000
Si       2.33989560       0.21245418       0.19957356       0.00000000
Si      -0.80940123      -1.10576520      -1.94712638       0.00000000
Si      -0.07957665      -3.43088577       0.69356035       0.00000000
Si      -3.13701417      -0.93763611       1.50971244       0.00000000
Si       0.91365723       3.20129451      -1.70270135       0.00000000
Si      -3.70037124       0.28256634      -0.48995326       0.00000000
Si       0.35609940       3.15990162       1.99108152       0.00000000
Si      -1.58201964      -3.22820559      -1.12314856       0.00000000
