10
Lattice="16.28999089631971 0.0 0.0 0.0 16.28999089631971 0.0 0.0 0.0 34.474598006748145" Properties=species:S:1:pos:R:3:initial_magmoms:R:1 pbc="T T T"
Si      -1.93719051      -0.25604622       1.44255589       0.00000000
Si       0.16881327      -2.17285794      -1.14048929       0.00000000
Si      -0.96093081       1.94390199      -1.25990936       0.00000000
Si       2.24653761       0.30061566       1.14959059       0.00000000
Si      -0.63757431      -1.48458915       3.01565995       0.00000000
Si       1.49706729       1.89032418       2.73535403       0.00000000
Si       2.53993680      -2.40233517      -1.21540263       0.00000000
Si       0.56079954       2.19638070      -3.06410398       0.00000000
Si      -3.68126307      -1.50464214       0.24573507       0.00000000
Si       3.64557168       1.80038709      -0.27710697       0.00000000
