10
Lattice="16.28999089631971 0.0 0.0 0.0 16.28999089631971 0.0 0.0 0.0 34.474598006748145" Properties=species:S:1:pos:R:3:initial_magmoms:R:1 pbc="T T T"
Si      -1.24414875      -1.17626832      -1.56725058       0.00000000
Si       1.30333032       1.52678025      -1.30824278       0.00000000
Si       1.74172680      -1.69950312       0.52263520       0.00000000
Si      -2.03854689       0.81568917       1.57990276       0.00000000
Si      -2.74611933      -2.33696340      -0.27634853       0.00000000
Si       1.47297438      -1.91223423       2.85618757       0.00000000
Si       0.09226656      -2.54492154      -2.86246195       0.00000000
Si      -0.86236002      -2.41075710       2.86415120       0.00000000
Si       2.55769290       2.87254995       0.35377852       0.00000000
Si      -2.64308508       0.19793979      -2.85487753       0.00000000
