10
Lattice="16.28999089631971 0.0 0.0 0.0 16.28999089631971 0.0 0.0 0.0 34.474598006748145" Properties=species:S:1:pos:R:3:initial_magmoms:R:1 pbc="T T T"
Si      -1.42249167      -1.00258434      -1.54801374       0.00000000
Si       2.12675724      -0.51007248      -0.86717452       0.00000000
Si      -0.01796787      -1.08903537       2.10264138       0.00000000
Si      -0.45276426       2.33917462       0.25400898       0.00000000
Si      -3.33746262      -1.33736013      -0.29151736       0.00000000
Si      -2.44701864       2.17121821       1.54173936       0.00000000
Si       0.77897151       0.60126390       3.49286480       0.00000000
Si       1.64493162      -2.70045846       2.04589616       0.00000000
Si       3.17666403       1.66219643      -1.33920098       0.00000000
Si       1.71261657      -2.61267165      -2.23671317       0.00000000
