10
Lattice="16.28999089631971 0.0 0.0 0.0 16.28999089631971 0.0 0.0 0.0 34.474598006748145" Properties=species:S:1:pos:R:3:initial_magmoms:R:1 pbc="T T T"
Si      -0.75427587       0.93141333       2.01841989       0.00000000
Si       0.42127569      -2.28928976       0.54349234       0.00000000
Si      -2.06230748       0.18588519      -1.20512920       0.00000000
Si       2.20320621       0.54447696      -0.85221254       0.00000000
Si       2.08134072      -1.17629113      -2.42718543       0.00000000
Si       0.64821168       2.83504644       1.78064846       0.00000000
Si       0.55390887      -2.90389517      -1.70252897       0.00000000
Si      -0.34725393      -0.82821944       3.53609597       0.00000000
Si      -3.28630292      -1.76475776      -0.56069518       0.00000000
Si      -1.11449664      -2.77559513       2.36461400       0.00000000
