10
Lattice="16.28999089631971 0.0 0.0 0.0 16.28999089631971 0.0 0.0 0.0 34.474598006748145" Properties=species:S:1:pos:R:3:initial_magmoms:R:1 pbc="T T T"
Si      -0.48379671      -1.94757539      -1.22005671       0.00000000
Si      -2.13954489       0.26994159       0.95187866       0.00000000
Si       1.22139162       1.36964691      -1.54770347       0.00000000
Si       1.61152083      -0.37002735       1.74331245       0.00000000
Si      -2.76017760       0.73392966      -1.57793771       0.00000000
Si       2.59038693      -0.52738875      -2.01283500       0.00000000
Si      -1.04288580      -3.22360271       0.74627204       0.00000000
Si       3.34137222      -1.06312613       0.20474475       0.00000000
Si      -2.53583172      -1.84871463       2.08681753       0.00000000
Si       1.18179063      -2.21640437      -2.87904424       0.00000000
