10
Lattice="16.28999089631971 0.0 0.0 0.0 16.28999089631971 0.0 0.0 0.0 34.474598006748145" Properties=species:S:1:pos:R:3:initial_magmoms:R:1 pbc="T T T"
Si       1.45350783      -1.46728265       1.19068433       0.00000000
Si      -2.33101755       0.40156479       0.71390037       0.00000000
Si       1.15180074       0.78418431       2.11681045       0.00000000
Si       1.07417889      -0.95736656      -2.20923690       0.00000000
Si      -1.57509639       2.67359625       0.01427249       0.00000000
Si      -0.97155189       2.25737046       2.19513678       0.00000000
Si      -2.17592046      -0.79030446       2.78389429       0.00000000
Si       1.96595865       2.88792378       1.21736769       0.00000000
Si       0.49897899       3.74078673      -0.65177711       0.00000000
Si      -0.54144702       0.64975923       3.73956516       0.00000000
