10
Lattice="16.28999089631971 0.0 0.0 0.0 16.28999089631971 0.0 0.0 0.0 34.474598006748145" Properties=species:S:1:pos:R:3:initial_magmoms:R:1 pbc="T T T"
Si      -0.35487765      -0.79089905      -2.31955567       0.00000000
Si      -2.25803835       1.03216209       0.11135301       0.00000000
Si       1.08823716       2.22116919       0.50670792       0.00000000
Si       0.47952873      -1.47593494       2.01755803       0.00000000
Si      -0.63353439       1.31555922      -3.33497105       0.00000000
Si       2.74002687       1.53733128       2.19210301       0.00000000
Si       1.47577626       0.07448114       3.53677998       0.00000000
Si      -1.73333745       2.89046013      -1.97025885       0.00000000
Si       3.19687992       2.45585922      -0.78281513       0.00000000
Si       1.55797560      -1.24020901      -3.69502395       0.00000000
