10
Lattice="16.28999089631971 0.0 0.0 0.0 16.28999089631971 0.0 0.0 0.0 34.474598006748145" Properties=species:S:1:pos:R:3:initial_magmoms:R:1 pbc="T T T"
Si       1.35739683       1.35651717       1.35609355       0.00000000
Si      -1.35716877       1.35705474      -1.35712778       0.00000000
Si       1.35777150      -1.35725022      -1.35702436       0.00000000
Si      -1.35757602      -1.35754344       1.35726568       0.00000000
Si       0.00200367      -2.71427238      -2.71384187       0.00000000
Si      -0.00006516       2.71404432      -2.71480716       0.00000000
Si       2.71404432      -2.71520091       0.00020685       0.00000000
Si       2.71495656       2.71451673       0.00010342       0.00000000
Si      -0.00307881       2.71355562       2.71604825       0.00000000
Si       2.71523349       0.00042354      -2.71463479       0.00000000
