10
Lattice="16.28999089631971 0.0 0.0 0.0 16.28999089631971 0.0 0.0 0.0 34.474598006748145" Properties=species:S:1:pos:R:3:initial_magmoms:R:1 pbc="T T T"
Si      -1.35511623      -1.32486570       1.36533274       0.00000000
Si      -1.35325917       1.35878148      -1.35905836       0.00000000
Si       1.36047564      -1.35703845      -1.35995470       0.00000000
Si       1.34876313       1.38377034       1.38167371       0.00000000
Si       0.03956841      -2.61449613       2.74021495       0.00000000
Si      -2.71044423       2.71430496       0.00027580       0.00000000
Si      -2.71194291       0.00144981      -2.71580692       0.00000000
Si      -2.71564074      -2.71306692      -0.00110319       0.00000000
Si       2.71327869       2.71554300       0.00503329       0.00000000
Si       0.00307881      -2.71355562      -2.71604825       0.00000000
