10
Lattice="16.28999089631971 0.0 0.0 0.0 16.28999089631971 0.0 0.0 0.0 34.474598006748145" Properties=species:S:1:pos:R:3:initial_magmoms:R:1 pbc="T T T"
Si      -1.34672688      -1.34653140      -1.38391456       0.00000000
Si       1.36642149       1.37028222      -1.38460405       0.00000000
Si      -1.31328351       1.46857608       1.35592117       0.00000000
Si       1.15776288      -1.26456012       1.76130820       0.00000000
Si       2.15831097       0.63879606       2.91193302       0.00000000
Si       0.49228380       2.42686791       2.73107918       0.00000000
Si       2.70360243      -2.69232975       0.01051476       0.00000000
Si      -2.71088406      -2.69837660      -0.00255112       0.00000000
Si       0.00905724      -2.70339392      -2.74514482       0.00000000
Si      -2.70734913       0.01197315      -2.74307635       0.00000000
