10
Lattice="16.28999089631971 0.0 0.0 0.0 16.28999089631971 0.0 0.0 0.0 34.474598006748145" Properties=species:S:1:pos:R:3:initial_magmoms:R:1 pbc="T T T"
Si       1.34280099       1.37267685       1.35316320       0.00000000
Si       1.35488817      -1.35933534      -1.35802412       0.00000000
Si      -1.35879777       1.35575154      -1.35964443       0.00000000
Si      -1.36642149      -1.37028222       1.38460405       0.00000000
Si       2.54482380       0.04072500       2.82712546       0.00000000
Si      -2.67970500       0.09829386       2.74052523       0.00000000
Si       2.71344159       2.71423980      -0.00299929       0.00000000
Si       2.71379997      -0.00042354      -2.71528981       0.00000000
Si      -0.00123804       2.71375110      -2.71563455       0.00000000
Si      -2.71314837      -2.71681362       0.00068949       0.00000000
