10
Lattice="16.28999089631971 0.0 0.0 0.0 16.28999089631971 0.0 0.0 0.0 34.474598006748145" Properties=species:S:1:pos:R:3:initial_magmoms:R:1 pbc="T T T"
Si      -0.75952125       0.28538451       2.16011057       0.00000000
Si      -0.59914620       2.28833775      -0.55642032       0.00000000
Si      -1.86328278      -1.54058765      -0.46892374       0.00000000
Si       2.40577236      -0.26915967      -0.71514146       0.00000000
Si       1.45681470      -2.02386471      -2.02858990       0.00000000
Si      -0.84566277      -1.77144302      -2.59218095       0.00000000
Si      -2.83792651       1.88257014       0.40331855       0.00000000
Si       1.14492636       3.53693367       0.64040049       0.00000000
Si       0.73133955       1.41090948       3.56532497       0.00000000
Si       2.44454256       2.30839074       2.21350455       0.00000000
