10
Lattice="16.28999089631971 0.0 0.0 0.0 16.28999089631971 0.0 0.0 0.0 34.474598006748145" Properties=species:S:1:pos:R:3:initial_magmoms:R:1 pbc="T T T"
Si      -0.17006760       1.39830102      -1.90558447       0.00000000
Si      -1.37614662       1.03384485       1.66033204       0.00000000
Si       2.22694074      -0.22470426       0.87703426       0.00000000
Si      -1.26392481      -2.04470451      -0.24083968       0.00000000
Si      -0.96203853      -2.69928558       1.95784799       0.00000000
Si      -1.97283303      -0.86773572       2.93475522       0.00000000
Si      -0.20561238       2.91654531       2.45500645       0.00000000
Si      -1.55755206       0.40488795      -3.49348534       0.00000000
Si       3.18692673       2.19238965       0.50815586       0.00000000
Si       2.39155119       0.12206097       3.20524307       0.00000000
