10
Lattice="16.28999089631971 0.0 0.0 0.0 16.28999089631971 0.0 0.0 0.0 34.474598006748145" Properties=species:S:1:pos:R:3:initial_magmoms:R:1 pbc="T T T"
Si       0.21998016      -2.31617736      -0.23132468       0.00000000
Si       1.29383325       0.87309513      -1.76892709       0.00000000
Si      -2.36216403       0.09280413       0.16172043       0.00000000
Si       0.30317319       1.72659339       1.59469237       0.00000000
Si       0.21396915      -2.46752775      -2.59004352       0.00000000
Si      -3.07055097      -0.11670156      -2.03941493       0.00000000
Si      -2.80287369       2.38259169       0.34722835       0.00000000
Si       0.89500518       3.14866152      -1.97529215       0.00000000
Si       0.99667107       3.71042217       0.33647226       0.00000000
Si       2.25007254      -3.09454614       0.69545645       0.00000000
