10
Lattice="16.28999089631971 0.0 0.0 0.0 16.28999089631971 0.0 0.0 0.0 34.474598006748145" Properties=species:S:1:pos:R:3:initial_magmoms:R:1 pbc="T T T"
Si      -1.34055297      -1.48006053       1.27145836       0.00000000
Si      -1.39602042       1.07644320      -1.66002177       0.00000000
Si       0.25343982       1.92186162       1.72507537       0.00000000
Si       1.28708919      -1.59801642      -1.64581823       0.00000000
Si      -2.73243573       2.44509642      -0.36481040       0.00000000
Si      -2.63707407      -2.85006582      -0.15468761       0.00000000
Si      -0.05644485       2.44488465      -3.02566478       0.00000000
Si       2.71178001      -2.86054029      -0.26928124       0.00000000
Si      -3.17430198      -0.26697681       2.35058283       0.00000000
Si       2.65160475      -0.26624376      -3.02245865       0.00000000
