10
Lattice="16.28999089631971 0.0 0.0 0.0 16.28999089631971 0.0 0.0 0.0 34.474598006748145" Properties=species:S:1:pos:R:3:initial_magmoms:R:1 pbc="T T T"
Si      -0.38141406       2.25370521       0.68918207       0.00000000
Si      -1.71113418      -0.47351772      -1.64202602       0.00000000
Si      -0.12745296      -1.75251078       1.67974125       0.00000000
Si       2.43867816      -0.07640010      -0.47037168       0.00000000
Si      -0.91269612      -2.79898038      -1.53363782       0.00000000
Si      -3.49032798      -0.18221994      -0.13920850       0.00000000
Si       3.01241196      -0.15078024       1.83604917       0.00000000
Si       1.26003150      -0.75909771       3.26764212       0.00000000
Si      -1.86914718       1.88683812       2.58180409       0.00000000
Si       0.55428354      -3.65184333       0.33550698       0.00000000
