10
Lattice="16.28999089631971 0.0 0.0 0.0 16.28999089631971 0.0 0.0 0.0 34.474598006748145" Properties=species:S:1:pos:R:3:initial_magmoms:R:1 pbc="T T T"
Si      -1.34799750       1.34966301      -1.35926521       0.00000000
Si       1.36599795      -1.36541151      -1.35505931       0.00000000
Si      -1.34578206      -1.35324288       1.38718965       0.00000000
Si       1.34654769       1.36072718       1.39639437       0.00000000
Si       0.51289065      -2.25256491       2.66433632       0.00000000
Si       2.29022739      -0.39951225       2.70501637       0.00000000
Si      -2.70378162       2.70652553       0.00196505       0.00000000
Si      -2.70612738      -0.00692490      -2.71491058       0.00000000
Si       0.00721647       2.70737261      -2.71425557       0.00000000
Si      -2.70467757      -2.72719035       0.00341299       0.00000000
