10
Lattice="16.28999089631971 0.0 0.0 0.0 16.28999089631971 0.0 0.0 0.0 34.474598006748145" Properties=species:S:1:pos:R:3:initial_magmoms:R:1 pbc="T T T"
Si       0.26875242       0.21273111      -2.33355237       0.00000000
Si      -2.33533440      -0.49852287       0.00796364       0.00000000
Si       1.04080068      -1.75436784       1.27787064       0.00000000
Si       0.41414067       2.10259917       1.36953865       0.00000000
Si       2.64552858       0.96971112      -2.13449593       0.00000000
Si      -2.31932133      -2.14700571       1.62985648       0.00000000
Si      -3.13510824       1.61008731       0.68869943       0.00000000
Si       1.65736089       0.94718205       3.04290209       0.00000000
Si       3.01957956      -0.60745410       1.87441942       0.00000000
Si      -1.47297438       1.91223423      -2.85618757       0.00000000
