10
Lattice="16.28999089631971 0.0 0.0 0.0 16.28999089631971 0.0 0.0 0.0 34.474598006748145" Properties=species:S:1:pos:R:3:initial_magmoms:R:1 pbc="T T T"
Si       1.31748633      -1.33050108       1.40135872       0.00000000
Si       1.26425061       1.46285014      -1.34467697       0.00000000
Si      -0.99624753      -1.55041608      -1.51922196       0.00000000
Si      -1.41244074       1.37558461       1.37775395       0.00000000
Si       0.86091021      -3.29386962      -1.38466753       0.00000000
Si      -0.38753910       2.14668805      -3.03007206       0.00000000
Si      -2.73365748      -2.54371512      -0.12232973       0.00000000
Si       2.61115668       2.75541277       0.05566616       0.00000000
Si       2.75292855      -2.63733375       0.09477072       0.00000000
Si       2.65970088       0.02220001       2.75795559       0.00000000
