10
Lattice="16.28999089631971 0.0 0.0 0.0 16.28999089631971 0.0 0.0 0.0 34.474598006748145" Properties=species:S:1:pos:R:3:initial_magmoms:R:1 pbc="T T T"
Si       0.00601101       0.15135039       2.35871884       0.00000000
Si      -2.27372562       0.51927633      -0.42627864       0.00000000
Si      -0.07661187      -2.39716147       0.26897096       0.00000000
Si       1.79624943       0.65401092      -1.69939178       0.00000000
Si       0.91525365       2.99385765      -1.50709237       0.00000000
Si      -0.21396915       2.46752775       2.59004352       0.00000000
Si       1.07986410       3.34062288       0.82111643       0.00000000
Si       1.37003787      -1.48357917      -3.00115333       0.00000000
Si      -3.33542637      -1.20813156       0.71724441       0.00000000
Si      -2.18937600      -0.87534315       2.82612570       0.00000000
