10
Lattice="16.28999089631971 0.0 0.0 0.0 16.28999089631971 0.0 0.0 0.0 34.474598006748145" Properties=species:S:1:pos:R:3:initial_magmoms:R:1 pbc="T T T"
Si       1.35679410       1.35892809       1.35599012       0.00000000
Si      -1.35728280       1.35664749      -1.35805860       0.00000000
Si       1.35760860      -1.35765747      -1.35774833       0.00000000
Si      -1.35891180      -1.35891180       1.35726568       0.00000000
Si      -0.00035838       2.71466334       2.71229051       0.00000000
Si      -2.71379997       0.00042354       2.71528981       0.00000000
Si      -2.71503801       2.71417464      -0.00034475       0.00000000
Si       2.71503280       2.71461447      -0.00027580       0.00000000
Si       2.71473949      -0.00087966      -2.71491058       0.00000000
Si      -2.71476108       0.00008145      -2.71508296       0.00000000
