10
Lattice="16.28999089631971 0.0 0.0 0.0 16.28999089631971 0.0 0.0 0.0 34.474598006748145" Properties=species:S:1:pos:R:3:initial_magmoms:R:1 pbc="T T T"
Si       1.35755388      -1.35635427      -1.36547064       0.00000000
Si       1.35170903       1.35798327       1.37588198       0.00000000
Si      -1.35909099       1.36089918      -1.36578091       0.00000000
Si      -1.36866951      -1.36071999       1.40094502       0.00000000
Si      -2.71233387      -2.71301805       0.00048264       0.00000000
Si       2.71296008      -2.71290402      -0.00503329       0.00000000
Si       2.71432844       2.71705797      -0.00210295       0.00000000
Si      -2.71624347       2.71663443      -0.00948052       0.00000000
Si      -0.00065561      -2.71388142      -2.72190893       0.00000000
Si       2.71445876       0.00138465      -2.72221920       0.00000000
