10
Lattice="16.28999089631971 0.0 0.0 0.0 16.28999089631971 0.0 0.0 0.0 34.474598006748145" Properties=species:S:1:pos:R:3:initial_magmoms:R:1 pbc="T T T"
Si      -2.00112876       1.20441744      -0.21832775       0.00000000
Si       1.13135679       0.90054378       1.84842555       0.00000000
Si       0.61351398       0.54198459      -2.21240856       0.00000000
Si       0.38610558      -2.36154501       0.02861393       0.00000000
Si       1.97219513       2.77438248       0.71121135       0.00000000
Si      -1.13867100      -0.45673902      -3.37654744       0.00000000
Si       2.42717972      -0.88182657      -2.60231648       0.00000000
Si       1.29878541      -2.79635769       2.12815260       0.00000000
Si       2.57138694      -0.79211754       2.63996277       0.00000000
Si      -2.57486256       1.27879758      -2.52474860       0.00000000
