10
Lattice="16.28999089631971 0.0 0.0 0.0 16.28999089631971 0.0 0.0 0.0 34.474598006748145" Properties=species:S:1:pos:R:3:initial_magmoms:R:1 pbc="T T T"
Si       0.85103847       2.14091325       0.41755656       0.00000000
Si       0.02111184      -0.81529821       2.24009168       0.00000000
Si      -2.30716736       0.29822103      -0.78247039       0.00000000
Si       1.10936529      -2.85032809       1.83180879       0.00000000
Si       2.94852258      -1.49050242      -1.52591551       0.00000000
Si      -0.30703392       3.51099999      -1.01993155       0.00000000
Si      -2.15805522       2.41067565      -1.90589474       0.00000000
Si      -2.13353714      -1.56708171       2.77248320       0.00000000
Si       0.34321401       2.78194104       2.61900220       0.00000000
Si       3.06620154       2.41311915      -0.31292610       0.00000000
