10
Lattice="16.28999089631971 0.0 0.0 0.0 16.28999089631971 0.0 0.0 0.0 34.474598006748145" Properties=species:S:1:pos:R:3:initial_magmoms:R:1 pbc="T T T"
Si      -2.11950819      -0.49801788       0.89527134       0.00000000
Si       1.54305137      -1.21252986       1.30041704       0.00000000
Si       0.67142493       2.26080765      -0.47402599       0.00000000
Si       0.21162339      -1.09354770      -2.14959581       0.00000000
Si       2.55209633      -0.61411671      -1.95964067       0.00000000
Si       2.53773506       0.49282137       2.50120243       0.00000000
Si       2.74538858       1.76000418      -1.57714479       0.00000000
Si      -2.43027252      -2.78249490       0.37087793       0.00000000
Si      -1.01672406       2.84019408      -2.19117220       0.00000000
Si      -2.01306933      -0.90479547      -3.02645770       0.00000000
