10
Lattice="16.28999089631971 0.0 0.0 0.0 16.28999089631971 0.0 0.0 0.0 34.474598006748145" Properties=species:S:1:pos:R:3:initial_magmoms:R:1 pbc="T T T"
Si      -1.44003015       1.69266132      -0.79153721       0.00000000
Si      -0.17140827      -0.64495368       2.32700219       0.00000000
Si      -1.27260153      -2.00424015      -0.51181017       0.00000000
Si       2.35706200       0.28155636      -0.71738231       0.00000000
Si       2.87871667      -1.60832799       0.55786826       0.00000000
Si       2.12206246      -0.80770707       2.72411531       0.00000000
Si      -2.18528136      -1.56942747      -2.61134883       0.00000000
Si      -2.57138694       0.79211754      -2.63996277       0.00000000
Si      -2.96790183       2.18230614       0.98704277       0.00000000
Si      -1.14588162      -2.79129150       2.60410916       0.00000000
