10
Lattice="16.28999089631971 0.0 0.0 0.0 16.28999089631971 0.0 0.0 0.0 34.474598006748145" Properties=species:S:1:pos:R:3:initial_magmoms:R:1 pbc="T T T"
Si      -1.35122292       1.35123921       1.35516273       0.00000000
Si      -1.35567009      -1.35795069      -1.35636934       0.00000000
Si       1.35799601       1.35651717      -1.35609355       0.00000000
Si       1.35613924      -1.35744570       1.35936863       0.00000000
Si      -0.00399105      -2.70591561       2.71446241       0.00000000
Si      -2.71164969      -2.71555929       0.00206848       0.00000000
Si      -2.71420722      -0.00037467      -2.71315238       0.00000000
Si       0.00089595       2.71427238      -2.71325580       0.00000000
Si       0.00091224      -2.71528236      -2.71291106       0.00000000
Si      -2.71409319       2.71423980       0.00365431       0.00000000
