10
Lattice="16.28999089631971 0.0 0.0 0.0 16.28999089631971 0.0 0.0 0.0 34.474598006748145" Properties=species:S:1:pos:R:3:initial_magmoms:R:1 pbc="T T T"
Si      -0.34208348       1.07887041      -2.02717644       0.00000000
Si      -0.28957104       1.84109580       1.43866025       0.00000000
Si       2.15787114      -0.96125661       0.16392681       0.00000000
Si      -2.08125017      -0.77108715       0.99045575       0.00000000
Si      -2.67414101       1.50377877       1.39746309       0.00000000
Si      -1.33676717      -0.62648082      -3.22796184       0.00000000
Si       1.03172715       1.06706016       3.30435759       0.00000000
Si       1.76935464       1.73863170      -2.78837599       0.00000000
Si      -1.38629366      -1.68871914       3.03107730       0.00000000
Si      -1.67657399       2.93858568      -1.60710323       0.00000000
