10
Lattice="16.28999089631971 0.0 0.0 0.0 16.28999089631971 0.0 0.0 0.0 34.474598006748145" Properties=species:S:1:pos:R:3:initial_magmoms:R:1 pbc="T T T"
Si      -0.04370607       1.72936269      -1.58759060       0.00000000
Si       2.35763541      -0.31294719       0.15055065       0.00000000
Si      -1.25317341       1.30171761       1.60968883       0.00000000
Si      -0.81709011      -2.31006861      -0.32661252       0.00000000
Si      -0.67766400       0.17984160       3.61800766       0.00000000
Si       0.69087519       0.81717156      -3.61549101       0.00000000
Si      -3.11056084      -2.14731522      -0.72372564       0.00000000
Si       2.88328113      -2.59263495       0.16334074       0.00000000
Si      -2.20157721       2.69061930      -1.75151741       0.00000000
Si      -0.25373304      -3.53027106       1.67305318       0.00000000
