10
Lattice="16.28999089631971 0.0 0.0 0.0 16.28999089631971 0.0 0.0 0.0 34.474598006748145" Properties=species:S:1:pos:R:3:initial_magmoms:R:1 pbc="T T T"
Si      -1.35799601      -1.35651717       1.35609355       0.00000000
Si       1.35763073      -1.35692442      -1.35681751       0.00000000
Si      -1.35710006       1.35775521      -1.35716226       0.00000000
Si       1.35771870       1.35694071       1.35757595       0.00000000
Si      -2.70921893      -0.00527796       2.71125628       0.00000000
Si       2.71239347      -0.00032580       2.71453136       0.00000000
Si       0.00046330      -2.71396287      -2.71366950       0.00000000
Si      -2.71366610      -2.71446786      -0.00027580       0.00000000
Si      -2.71509962       0.00001629      -2.71387635       0.00000000
Si      -0.00185677      -2.71396287       2.71546218       0.00000000
