10
Lattice="16.28999089631971 0.0 0.0 0.0 16.28999089631971 0.0 0.0 0.0 34.279985188174585" Properties=species:S:1:pos:R:3:initial_magmoms:R:1 pbc="T T T"
Si       1.35558864      -1.35326277       1.35937357       0.00000000
Si      -1.35681039      -1.35658233      -1.35800237       0.00000000
Si       1.35809730       1.35833351      -1.35752245       0.00000000
Si      -1.35700587       1.35883850       1.35947641       0.00000000
Si      -2.71449881      -2.71327773      -0.00061704       0.00000000
Si       2.70433548       0.00923480       2.72340923       0.00000000
Si       0.00100998      -2.71397820      -2.71446214       0.00000000
Si      -2.71313371       2.71599097      -0.00003428       0.00000000
Si      -2.71442876       0.00120546      -2.71473638       0.00000000
Si       2.71492398       2.71450858       0.00000000       0.00000000
