10
Lattice="16.28999089631971 0.0 0.0 0.0 16.28999089631971 0.0 0.0 0.0 34.279985188174585" Properties=species:S:1:pos:R:3:initial_magmoms:R:1 pbc="T T T"
Si       0.78739344      -1.78046442      -1.28382044       0.00000000
Si       0.88397685      -0.47359917       2.11007139       0.00000000
Si       0.69418206       2.13815602      -0.68923377       0.00000000
Si      -2.35901096       0.10883349      -0.26447023       0.00000000
Si      -1.05496809       3.30585255       0.46713362       0.00000000
Si       0.89554275       1.51936830      -3.02760998       0.00000000
Si       1.08186777       1.60117668       3.12277128       0.00000000
Si       1.29129201      -0.81873540      -3.36691347       0.00000000
Si       2.98646199      -1.44083421       1.74670334       0.00000000
Si      -0.97767367      -3.30989994      -1.48596963       0.00000000
