10
Lattice="16.28999089631971 0.0 0.0 0.0 16.28999089631971 0.0 0.0 0.0 34.279985188174585" Properties=species:S:1:pos:R:3:initial_magmoms:R:1 pbc="T T T"
Si      -2.22000839       0.85346568      -0.31839268       0.00000000
Si       1.58860080       1.72774998      -0.52133031       0.00000000
Si      -0.19860768      -1.31067711      -2.29278381       0.00000000
Si       1.08225873      -0.52768197       2.37433594       0.00000000
Si       2.25663741      -2.25621387       1.26246400       0.00000000
Si      -3.18944258      -1.18117161       0.64792636       0.00000000
Si      -1.84506146       3.00141199       0.64580100       0.00000000
Si       3.55711698       0.03960099      -0.90200975       0.00000000
Si       1.17270081       2.16270927      -2.78278219       0.00000000
Si      -1.44793991       2.11177044       2.74278090       0.00000000
