10
Lattice="16.28999089631971 0.0 0.0 0.0 16.28999089631971 0.0 0.0 0.0 34.279985188174585" Properties=species:S:1:pos:R:3:initial_magmoms:R:1 pbc="T T T"
Si       0.66065724      -0.31501602      -2.17784296       0.00000000
Si      -1.03558788       2.08581395       0.07383913       0.00000000
Si      -0.98069058      -1.58537279       1.46762983       0.00000000
Si       1.80027306       0.72006035       1.54554828       0.00000000
Si       1.16217747      -1.33166596       2.49335612       0.00000000
Si      -1.76070465       1.83882497       2.49472732       0.00000000
Si       0.93923253       3.35695523      -1.01581937       0.00000000
Si      -2.69615138      -0.32968842       2.45612803       0.00000000
Si       3.48674418      -0.48191522      -1.05736673       0.00000000
Si       0.55734606       1.89500918       3.17456836       0.00000000
