10
Lattice="16.28999089631971 0.0 0.0 0.0 16.28999089631971 0.0 0.0 0.0 34.279985188174585" Properties=species:S:1:pos:R:3:initial_magmoms:R:1 pbc="T T T"
Si       1.34425080       1.36057990      -1.35875996       0.00000000
Si      -1.35694071       1.35455260       1.35423157       0.00000000
Si       1.35615879      -1.35757619       1.35567133       0.00000000
Si      -1.35260757      -1.37401328      -1.34489027       0.00000000
Si      -2.63883176       0.00119894      -2.66973017       0.00000000
Si       2.64438828      -0.03765596      -2.72404683       0.00000000
Si      -0.08918775       2.58563677      -2.81298288       0.00000000
Si      -0.00047241       2.71359472       2.71182258       0.00000000
Si       2.71407690      -0.00109957       2.71240534       0.00000000
Si      -2.71569938      -0.00089758       2.71192542       0.00000000
