10
Lattice="16.28999089631971 0.0 0.0 0.0 16.28999089631971 0.0 0.0 0.0 34.279985188174585" Properties=species:S:1:pos:R:3:initial_magmoms:R:1 pbc="T T T"
Si       1.35909456      -1.16693741      -1.65116497       0.00000000
Si       1.26170968       1.52404353       1.46403043       0.00000000
Si      -0.76088183      -1.81198231       1.56429944       0.00000000
Si      -1.36991606       1.53082017      -1.62970569       0.00000000
Si      -2.47304228      -2.42179504      -0.19560170       0.00000000
Si       2.74898505      -2.58180929      -0.29326544       0.00000000
Si       1.07476890      -3.50669033       1.17292463       0.00000000
Si       2.65161972       2.82722724      -0.21137051       0.00000000
Si      -0.00431170      -2.52881792      -3.03648850       0.00000000
Si      -2.85344636       2.75079456      -0.10116029       0.00000000
