10
Lattice="16.28999089631971 0.0 0.0 0.0 16.28999089631971 0.0 0.0 0.0 34.279985188174585" Properties=species:S:1:pos:R:3:initial_magmoms:R:1 pbc="T T T"
Si       1.54740339      -1.70981210      -0.12018570       0.00000000
Si       0.45815625       1.34789324       1.85653648       0.00000000
Si       0.21743892       1.65693083      -1.65709541       0.00000000
Si      -2.00042829      -1.22405666      -0.32967080       0.00000000
Si      -1.74109149       1.90232339       2.36316066       0.00000000
Si       2.05164405      -1.54643969      -2.40673055       0.00000000
Si      -1.75984128      -2.91237248       1.29948640       0.00000000
Si      -1.53745020       3.15733757      -1.21909979       0.00000000
Si       0.43714215      -3.65265524       0.74709841       0.00000000
Si       2.15484120       2.89977638      -1.06048621       0.00000000
