10
Lattice="16.28999089631971 0.0 0.0 0.0 16.28999089631971 0.0 0.0 0.0 34.279985188174585" Properties=species:S:1:pos:R:3:initial_magmoms:R:1 pbc="T T T"
Si      -1.16879121       1.76639312       1.14471219       0.00000000
Si      -0.25886439       0.04214549      -2.40954151       0.00000000
Si      -1.70233758      -1.68978192       0.55639875       0.00000000
Si       1.84292028       1.78146137       0.01868260       0.00000000
Si       1.48906890      -1.87885995       1.00450697       0.00000000
Si       1.58358348      -1.34491869      -2.67414886       0.00000000
Si       1.82417049      -3.03323451      -1.04499165       0.00000000
Si      -1.28643759      -2.12474121       2.81785064       0.00000000
Si      -3.78677992      -0.71041016       0.21054779       0.00000000
Si      -3.29850671       1.01767214       1.78711947       0.00000000
