10
Lattice="16.28999089631971 0.0 0.0 0.0 16.28999089631971 0.0 0.0 0.0 34.279985188174585" Properties=species:S:1:pos:R:3:initial_magmoms:R:1 pbc="T T T"
Si       2.19924774      -0.55443015      -0.50662418       0.00000000
Si       0.09958077       1.91997198      -1.32978993       0.00000000
Si       0.12901680       1.23479829       1.99259381       0.00000000
Si      -1.84292028      -1.78146137      -0.01868260       0.00000000
Si      -3.01171149      -0.01506825       1.12602958       0.00000000
Si       1.74109149      -1.90232339      -2.36316066       0.00000000
Si      -2.10178467      -1.73931588      -2.42822411       0.00000000
Si       2.08748205       3.03583698      -0.74853817       0.00000000
Si       3.19381740      -1.50519600       1.34847253       0.00000000
Si       0.20364129       1.25501418      -3.58226045       0.00000000
