10
Lattice="16.28999089631971 0.0 0.0 0.0 16.28999089631971 0.0 0.0 0.0 34.279985188174585" Properties=species:S:1:pos:R:3:initial_magmoms:R:1 pbc="T T T"
Si      -0.98798850      -1.62933462       1.43380373       0.00000000
Si       1.62513927       1.01159108       1.47050390       0.00000000
Si      -1.87126488       1.65649589       0.08004381       0.00000000
Si       1.98329121      -1.82541735      -1.83103215       0.00000000
Si      -1.85288976      -0.89998245      -2.88017169       0.00000000
Si      -2.37185658      -0.32476624       2.84966046       0.00000000
Si       0.32500179       2.40982694       2.83579077       0.00000000
Si      -2.97302274       1.08449046      -2.02783366       0.00000000
Si       2.48588658       2.86503470       0.28474004       0.00000000
Si      -2.35923183      -3.15541440       0.01549456       0.00000000
