10
Lattice="16.28999089631971 0.0 0.0 0.0 16.28999089631971 0.0 0.0 0.0 34.279985188174585" Properties=species:S:1:pos:R:3:initial_magmoms:R:1 pbc="T T T"
Si      -2.12971550      -0.74872098       0.64240728       0.00000000
Si      -1.05818211       1.69269390      -1.31295845       0.00000000
Si       1.16879121      -1.76639312      -1.14471219       0.00000000
Si       1.23383718       1.08190035       2.27752921       0.00000000
Si       3.01171149       0.01506825      -1.12602958       0.00000000
Si      -1.23777936      -1.90666142       2.52547648       0.00000000
Si       3.14072829       1.24986654       0.86656423       0.00000000
Si      -0.53354637      -3.45617504      -0.58831343       0.00000000
Si      -1.60233327       3.24992016       0.53188855       0.00000000
Si      -2.61798871      -2.47680328      -0.93416440       0.00000000
