10
Lattice="16.28999089631971 0.0 0.0 0.0 16.28999089631971 0.0 0.0 0.0 34.279985188174585" Properties=species:S:1:pos:R:3:initial_magmoms:R:1 pbc="T T T"
Si       1.34846991       1.35739683       1.37092593       0.00000000
Si      -1.36811565      -1.35624024       1.37072025       0.00000000
Si      -1.33558452       1.39766571      -1.38419915       0.00000000
Si       1.40191740      -1.32958980      -1.41875682       0.00000000
Si       2.69584839      -2.70044217       0.01746909       0.00000000
Si      -2.71945260       2.70223409       0.03165758       0.00000000
Si       2.72189610       2.70697078      -0.01419192       0.00000000
Si       2.70457983       0.00143352       2.73160215       0.00000000
Si      -2.71075374      -2.72831436      -0.01395539       0.00000000
Si      -0.01032786      -2.71282257       2.73074515       0.00000000
