10
Lattice="16.28999089631971 0.0 0.0 0.0 16.28999089631971 0.0 0.0 0.0 34.279985188174585" Properties=species:S:1:pos:R:3:initial_magmoms:R:1 pbc="T T T"
Si       1.15601985       0.31964238       1.96983189       0.00000000
Si       1.40331834       0.67103397      -1.76257498       0.00000000
Si      -2.03968719       1.08220986       0.49952822       0.00000000
Si      -0.06037074      -2.35804266      -0.16985742       0.00000000
Si       1.09918404       2.70348840       1.70481318       0.00000000
Si      -2.99283138       0.41295150      -1.51757579       0.00000000
Si      -0.47863278      -0.52716069       3.50687872       0.00000000
Si      -2.54358576       0.12048084       2.58262125       0.00000000
Si       2.09945520      -1.36115982      -2.69588238       0.00000000
Si       2.07280476      -2.92545594      -0.93793520       0.00000000
