10
Lattice="16.28999089631971 0.0 0.0 0.0 16.28999089631971 0.0 0.0 0.0 34.279985188174585" Properties=species:S:1:pos:R:3:initial_magmoms:R:1 pbc="T T T"
Si      -0.67152267      -1.90507382      -1.25694492       0.00000000
Si      -2.00508723      -0.16377314       1.41326174       0.00000000
Si       1.66632039       0.03719007       1.86541500       0.00000000
Si       0.47187243       2.07177849      -2.10873447       0.00000000
Si      -2.24655390      -0.58559781      -2.38835646       0.00000000
Si       1.46593710       2.42859465       1.96969477       0.00000000
Si      -0.71149833      -3.43144682       0.53192283       0.00000000
Si      -2.53519641      -2.45515454       1.49879035       0.00000000
Si       3.60062757      -0.97542891       0.90632903       0.00000000
Si      -0.99098586       0.97093287      -3.67848443       0.00000000
