10
Lattice="16.28999089631971 0.0 0.0 0.0 16.28999089631971 0.0 0.0 0.0 34.279985188174585" Properties=species:S:1:pos:R:3:initial_magmoms:R:1 pbc="T T T"
Si      -1.89833886       1.20246264       0.73410629       0.00000000
Si      -0.85458969      -1.41859836      -1.69027845       0.00000000
Si       0.88550811      -1.43506755       1.68417661       0.00000000
Si       1.66578282       1.56885732      -0.68501733       0.00000000
Si       0.73990809       2.23179516      -2.80276744       0.00000000
Si       1.13700942      -2.26260932      -2.70962866       0.00000000
Si      -3.83574114      -0.04038291       0.13749710       0.00000000
Si       1.23641100      -0.16276968       3.64958638       0.00000000
Si      -2.00153601      -3.24375344      -0.61213804       0.00000000
Si      -1.95597288       3.34094868      -0.23430383       0.00000000
