10
Lattice="16.28999089631971 0.0 0.0 0.0 16.28999089631971 0.0 0.0 0.0 34.279985188174585" Properties=species:S:1:pos:R:3:initial_magmoms:R:1 pbc="T T T"
Si       0.92590731       1.61543043       1.42235592       0.00000000
Si      -1.76023224      -1.14554538       1.17128916       0.00000000
Si      -0.92900241       1.75936887      -1.45066637       0.00000000
Si       1.89736146      -1.79045019      -0.06561708       0.00000000
Si       2.33870643       0.33278841       2.71464352       0.00000000
Si      -0.38740878      -2.39036202       2.68378466       0.00000000
Si       2.32663554       2.91035511       0.02731434       0.00000000
Si      -1.48157550       0.60189921      -3.58017452       0.00000000
Si       0.57409218       3.68988048      -1.33929064       0.00000000
Si      -2.77630470       2.84571639      -0.16537189       0.00000000
