10
Lattice="16.28999089631971 0.0 0.0 0.0 16.28999089631971 0.0 0.0 0.0 34.279985188174585" Properties=species:S:1:pos:R:3:initial_magmoms:R:1 pbc="T T T"
Si      -1.34716671       1.29564144       1.43643845       0.00000000
Si      -1.78851168      -0.82759716      -1.34382214       0.00000000
Si       1.35342207      -1.41918480       1.40270350       0.00000000
Si       1.26338724       1.23250140      -1.68339987       0.00000000
Si      -2.75996583       2.57828346       0.14415085       0.00000000
Si       2.63523330      -2.73504213      -0.17502685       0.00000000
Si      -2.66281227      -2.74452291      -0.08808590       0.00000000
Si      -0.94465710      -2.83520934      -2.40790776       0.00000000
Si      -0.00143352       2.64647340       2.78076310       0.00000000
Si       2.71435383      -0.06579531       2.77558682       0.00000000
