10
Lattice="16.28999089631971 0.0 0.0 0.0 16.28999089631971 0.0 0.0 0.0 34.279985188174585" Properties=species:S:1:pos:R:3:initial_magmoms:R:1 pbc="T T T"
Si       1.35622395       1.35658233       1.35851657       0.00000000
Si       1.35731538      -1.35764118      -1.35697397       0.00000000
Si      -1.35757602       1.35757602      -1.35700825       0.00000000
Si      -1.35845568      -1.35913986       1.35779669       0.00000000
Si       2.71342530       0.00039096      -2.71422218       0.00000000
Si      -2.71412577      -0.00162900      -2.71357086       0.00000000
Si      -0.00197109      -2.71466334      -2.71357086       0.00000000
Si       0.00193851       2.71492398      -2.71394794       0.00000000
Si       2.71533123       2.71414206       0.00047992       0.00000000
Si      -2.71489140       2.71474479       0.00075416       0.00000000
