10
Lattice="16.28999089631971 0.0 0.0 0.0 16.28999089631971 0.0 0.0 0.0 34.279985188174585" Properties=species:S:1:pos:R:3:initial_magmoms:R:1 pbc="T T T"
Si       1.48491495       1.27143450       1.23178340       0.00000000
Si       0.44988093      -2.23497171       0.41194281       0.00000000
Si      -2.08362132       1.03966038       0.49901402       0.00000000
Si       0.46366227       0.69730974      -2.23701024       0.00000000
Si      -1.50306201      -2.56640805       1.71787386       0.00000000
Si       0.37116765       2.98527282      -1.70717850       0.00000000
Si      -1.75233159       3.04240185      -0.73715721       0.00000000
Si       0.50236731      -3.17330177      -1.75763866       0.00000000
Si       1.80750582       3.27715704       0.09824649       0.00000000
Si      -1.27420380      -0.25534575      -3.58596269       0.00000000
