10
Lattice="16.28999089631971 0.0 0.0 0.0 16.28999089631971 0.0 0.0 0.0 34.279985188174585" Properties=species:S:1:pos:R:3:initial_magmoms:R:1 pbc="T T T"
Si      -0.09249462       2.28796308       0.52983175       0.00000000
Si      -0.46366227      -0.69730974       2.23701024       0.00000000
Si      -1.73786607      -0.95265549      -1.34895245       0.00000000
Si       1.68461406       0.33444999      -1.86133568       0.00000000
Si      -0.00123804       1.30572495      -3.23291293       0.00000000
Si      -2.21599386       2.34509211       1.49985303       0.00000000
Si      -1.92775860      -3.07029033      -0.48855862       0.00000000
Si       1.02125268       0.57412476       3.46879364       0.00000000
Si      -3.67779330       0.09431910      -0.58680511       0.00000000
Si       1.34384355       2.57984730       2.33525674       0.00000000
