10
Lattice="16.28999089631971 0.0 0.0 0.0 16.28999089631971 0.0 0.0 0.0 34.279985188174585" Properties=species:S:1:pos:R:3:initial_magmoms:R:1 pbc="T T T"
Si       1.32336702      -1.44018261      -1.28092721       0.00000000
Si      -1.34892603      -1.36941885       1.35294264       0.00000000
Si       1.36946772       1.34674317       1.35678200       0.00000000
Si      -1.29393099       1.37085237      -1.43622591       0.00000000
Si      -2.37884499      -0.20989665      -2.86865501       0.00000000
Si      -2.69584839       2.70044217      -0.01746909       0.00000000
Si       2.72409525      -0.14525793      -2.67596878       0.00000000
Si       2.71109583       2.70410742      -0.01693775       0.00000000
Si       0.00873144       2.70187569       2.71413306       0.00000000
Si      -2.70617625      -0.01238040       2.71327606       0.00000000
