10
Lattice="16.28999089631971 0.0 0.0 0.0 16.28999089631971 0.0 0.0 0.0 34.279985188174585" Properties=species:S:1:pos:R:3:initial_magmoms:R:1 pbc="T T T"
Si       1.35529542      -1.35817875       1.35800237       0.00000000
Si       1.34162811       1.35736425      -1.37371975       0.00000000
Si      -1.36946772      -1.34674317      -1.35678200       0.00000000
Si      -1.36073628       1.35513252       1.35735105       0.00000000
Si       2.67988419      -0.04702923      -2.72187348       0.00000000
Si       2.71070487       2.71477737      -0.00089128       0.00000000
Si       2.71221984      -0.00105885       2.71449642       0.00000000
Si      -0.04610070      -2.78692578      -2.63770921       0.00000000
Si      -0.00268785       2.71340901       2.71411934       0.00000000
Si      -2.71684620       2.71109583      -0.00332516       0.00000000
