10
Lattice="16.28999089631971 0.0 0.0 0.0 16.28999089631971 0.0 0.0 0.0 34.279985188174585" Properties=species:S:1:pos:R:3:initial_magmoms:R:1 pbc="T T T"
Si      -1.33353198       1.31219208      -1.45131254       0.00000000
Si      -1.18566765      -1.49235948       1.47997063       0.00000000
Si       1.37872044      -1.40939451      -1.44058290       0.00000000
Si       1.39973454       1.43443224       1.58946096       0.00000000
Si       2.13381081      -0.63034155       2.78357063       0.00000000
Si      -2.62200582      -2.67934662      -0.10942177       0.00000000
Si      -1.46559501       0.99536787       3.36129155       0.00000000
Si       0.50018445      -2.46363444       2.85154788       0.00000000
Si      -2.68465716       2.72274318      -0.06660605       0.00000000
Si       0.02813283       2.66554899      -2.83101416       0.00000000
