10
Lattice="16.28999089631971 0.0 0.0 0.0 16.28999089631971 0.0 0.0 0.0 34.279985188174585" Properties=species:S:1:pos:R:3:initial_magmoms:R:1 pbc="T T T"
Si      -1.09937952      -0.20860974      -2.03441542       0.00000000
Si       2.15720325       0.85903686      -0.47618354       0.00000000
Si      -0.91686636       1.86191442       1.14766027       0.00000000
Si       0.06115266      -2.00805201       1.29417300       0.00000000
Si      -0.21955662       1.05547797       3.23013625       0.00000000
Si       1.85038110       2.02404879      -2.50915920       0.00000000
Si      -3.23522658       0.76317021      -1.71794242       0.00000000
Si      -0.51719121      -1.27391058       3.49899432       0.00000000
Si      -0.87493590      -2.42571132      -2.78514751       0.00000000
Si       0.19339488       3.80475756       0.28037616       0.00000000
