10
Lattice="16.28999089631971 0.0 0.0 0.0 16.28999089631971 0.0 0.0 0.0 34.279985188174585" Properties=species:S:1:pos:R:3:initial_magmoms:R:1 pbc="T T T"
Si       1.27311237      -1.31321835       1.56160503       0.00000000
Si      -1.41431409      -1.42540758      -1.34108660       0.00000000
Si       1.90434987       0.74953548      -1.43905885       0.00000000
Si      -1.41193575       1.39008718       1.54688177       0.00000000
Si       2.67012648       2.61283196       0.00324632       0.00000000
Si       2.61136845      -2.71761183       0.21345130       0.00000000
Si      -2.73191445      -2.64647340       0.14231687       0.00000000
Si       2.64218913       0.04419477       2.93443350       0.00000000
Si      -2.85628860       2.72170781       0.21357471       0.00000000
Si      -0.06851574      -2.67058260       2.93532478       0.00000000
