10
Lattice="16.28999089631971 0.0 0.0 0.0 16.28999089631971 0.0 0.0 0.0 34.279985188174585" Properties=species:S:1:pos:R:3:initial_magmoms:R:1 pbc="T T T"
Si       1.82369808      -0.97629228      -0.96686752       0.00000000
Si      -0.84887190      -0.90473031       1.95186917       0.00000000
Si       0.53010918       2.29138139      -0.08552861       0.00000000
Si      -1.75389543      -0.39341979      -1.66940193       0.00000000
Si       1.86367374       0.55008072      -2.75573527       0.00000000
Si      -1.43635446       3.09170258      -1.05345881       0.00000000
Si       1.04961357      -3.02236515      -1.88217792       0.00000000
Si      -2.68146432      -2.22164649       1.29629836       0.00000000
Si       2.53519641       2.45515454      -1.49879035       0.00000000
Si       0.47762280       3.22971146       2.08405286       0.00000000
