10
Lattice="16.28999089631971 0.0 0.0 0.0 16.28999089631971 0.0 0.0 0.0 34.279985188174585" Properties=species:S:1:pos:R:3:initial_magmoms:R:1 pbc="T T T"
Si       0.76088183       1.81198231      -1.56429944       0.00000000
Si       1.83565072      -1.69470801      -0.39137481       0.00000000
Si      -1.71216045      -0.60981273      -1.75990114       0.00000000
Si      -0.24205311       0.00190267       2.91774257       0.00000000
Si      -3.03244866      -2.15574759      -0.52414127       0.00000000
Si      -0.59468274      -2.07692028      -3.23394133       0.00000000
Si       0.76596893      -3.38200992      -1.77399022       0.00000000
Si       2.02259151       3.33602584      -0.10026901       0.00000000
Si       2.11997638       0.64504490      -3.21546441       0.00000000
Si      -0.54877752      -2.37067785       3.20079257       0.00000000
