10
Lattice="16.28999089631971 0.0 0.0 0.0 16.28999089631971 0.0 0.0 0.0 34.279985188174585" Properties=species:S:1:pos:R:3:initial_magmoms:R:1 pbc="T T T"
Si      -1.35702216       1.35689184       1.35772813       0.00000000
Si       1.35653346       1.35839052      -1.35700825       0.00000000
Si       1.35695700      -1.35749457       1.35786525       0.00000000
Si      -1.35892809      -1.35685926      -1.35697397       0.00000000
Si       0.00013032       2.71251306      -2.71501062       0.00000000
Si       0.00100998      -2.71461447       2.71449642       0.00000000
Si      -2.71446786      -0.00257382      -2.71470210       0.00000000
Si       2.71500543       0.00050499       2.71422218       0.00000000
Si      -0.00133578       2.71456560       2.71535342       0.00000000
Si      -2.71503801      -2.71489140       0.00027424       0.00000000
