10
Lattice="16.28999089631971 0.0 0.0 0.0 16.28999089631971 0.0 0.0 0.0 34.279985188174585" Properties=species:S:1:pos:R:3:initial_magmoms:R:1 pbc="T T T"
Si      -0.91834875       0.16754265       2.10105575       0.00000000
Si       2.03636403       1.05858936       0.46775066       0.00000000
Si      -1.21239954       0.19520307      -2.05803434       0.00000000
Si       0.96681150      -2.19027195       0.33073348       0.00000000
Si       2.08186200      -1.81376118      -1.75709018       0.00000000
Si      -1.02091059      -3.25078353       0.90708319       0.00000000
Si       0.67580694      -0.62069787      -3.43674184       0.00000000
Si       3.58152333      -0.37660851      -0.51539987       0.00000000
Si      -1.27650069      -2.02706244       2.98602834       0.00000000
Si      -2.84602590      -1.63808982      -1.99005709       0.00000000
