10
Lattice="16.28999089631971 0.0 0.0 0.0 16.28999089631971 0.0 0.0 0.0 34.279985188174585" Properties=species:S:1:pos:R:3:initial_magmoms:R:1 pbc="T T T"
Si      -1.81822464      -1.44177903      -0.15809938       0.00000000
Si       1.82453443      -0.48246093      -1.37603365       0.00000000
Si      -0.67142493       2.20343427      -0.39048353       0.00000000
Si       0.44040015      -0.39951225       2.33443402       0.00000000
Si      -2.39914233       2.02224060       1.26873724       0.00000000
Si       3.37119011       0.60362595       0.16313854       0.00000000
Si      -3.49676253      -0.03385062       0.82954183       0.00000000
Si       2.29965671      -1.83778893       2.11850427       0.00000000
Si      -1.20370068       2.12011092      -2.83454500       0.00000000
Si       1.75898998      -2.84056712      -1.76785410       0.00000000
