10
Lattice="16.28999089631971 0.0 0.0 0.0 16.28999089631971 0.0 0.0 0.0 34.279985188174585" Properties=species:S:1:pos:R:3:initial_magmoms:R:1 pbc="T T T"
Si       1.35620124       1.35782037      -1.35717965       0.00000000
Si      -1.35884664      -1.35651717      -1.35673401       0.00000000
Si       1.35728850      -1.35731538       1.35834517       0.00000000
Si      -1.35782037       1.35780408       1.35834517       0.00000000
Si      -0.00037467      -2.71440270       2.71449642       0.00000000
Si       2.71464935      -2.71469592       0.00013712       0.00000000
Si       2.71404336       0.00092853       2.71566194       0.00000000
Si       2.71470962       2.71505430       0.00058276       0.00000000
Si      -0.00003258       2.71531494       2.71459926       0.00000000
Si      -2.71524978      -0.00239463      -2.71473638       0.00000000
