10
Lattice="16.28999089631971 0.0 0.0 0.0 16.28999089631971 0.0 0.0 0.0 34.279985188174585" Properties=species:S:1:pos:R:3:initial_magmoms:R:1 pbc="T T T"
Si      -2.33499557      -0.25532946      -0.27403435       0.00000000
Si       0.60281145      -0.13502781       2.28589353       0.00000000
Si       1.44637281      -1.65249018      -0.90423795       0.00000000
Si       0.08169435       2.30894460      -0.73400345       0.00000000
Si       0.20025297       2.12793012       2.74850219       0.00000000
Si      -2.18522531      -0.07993503      -2.83156264       0.00000000
Si       1.35604476       3.20140854       1.00903193       0.00000000
Si       3.44531871      -1.33351569       0.29114008       0.00000000
Si       0.63998523      -3.78915174      -0.56692271       0.00000000
Si      -3.45059667       1.03979070       1.47081787       0.00000000
