10
Lattice="16.28999089631971 0.0 0.0 0.0 16.28999089631971 0.0 0.0 0.0 34.279985188174585" Properties=species:S:1:pos:R:3:initial_magmoms:R:1 pbc="T T T"
Si      -1.35663120      -1.35749457      -1.35529425       0.00000000
Si       1.35840681       1.35762836      -1.35502001       0.00000000
Si       1.35526284      -1.35606105       1.36170461       0.00000000
Si      -1.35716877       1.35596414       1.36153321       0.00000000
Si      -2.70875007       0.00430056       2.71182258       0.00000000
Si      -2.71417464      -0.00029322      -2.71271386       0.00000000
Si       0.00073305      -2.71476108      -2.71233678       0.00000000
Si       0.00099369       2.71498818      -2.71302238       0.00000000
Si       2.71585251       0.00000000      -2.71271386       0.00000000
Si      -2.71246419       2.71617409       0.00085700       0.00000000
