10
Lattice="16.28999089631971 0.0 0.0 0.0 16.28999089631971 0.0 0.0 0.0 34.279985188174585" Properties=species:S:1:pos:R:3:initial_magmoms:R:1 pbc="T T T"
Si      -1.35526284       1.35606105      -1.36170461       0.00000000
Si       1.36089918      -1.35866745      -1.36029913       0.00000000
Si       1.36863693       1.34949618       1.36533829       0.00000000
Si      -1.34294760      -1.37642355       1.38206694       0.00000000
Si      -2.68104078       0.03702717       2.72858551       0.00000000
Si      -2.71243161       2.71202519      -0.00017140       0.00000000
Si      -2.71059084      -2.71577106       0.00068560       0.00000000
Si       2.71520652      -2.71331127      -0.00027424       0.00000000
Si      -2.71189404      -0.00143352      -2.71699886       0.00000000
Si       2.71988979       2.70958086      -0.00150832       0.00000000
