10
Lattice="16.28999089631971 0.0 0.0 0.0 16.28999089631971 0.0 0.0 0.0 34.279985188174585" Properties=species:S:1:pos:R:3:initial_magmoms:R:1 pbc="T T T"
Si      -1.54515930       1.43519787       0.98315052       0.00000000
Si       1.37557973       1.21492449      -1.50132707       0.00000000
Si      -1.49966133      -1.43715267      -1.24169032       0.00000000
Si      -0.14977026      -0.17539443       2.55752828       0.00000000
Si      -2.61471183      -1.81366344       0.84613335       0.00000000
Si       2.18522531       0.07993503       2.83156264       0.00000000
Si      -3.58152333       0.37660851       0.51539987       0.00000000
Si      -1.09015612      -2.32386624       2.65790014       0.00000000
Si      -0.10579703       2.57406435      -2.75504967       0.00000000
Si       1.23227660      -3.51841194      -0.83608931       0.00000000
