10
Lattice="16.28999089631971 0.0 0.0 0.0 16.28999089631971 0.0 0.0 0.0 34.279985188174585" Properties=species:S:1:pos:R:3:initial_magmoms:R:1 pbc="T T T"
Si       1.55000525       1.10600955      -1.38055862       0.00000000
Si       0.35795646      -0.50684706       2.27578093       0.00000000
Si      -1.72717983       1.59741369      -0.37420053       0.00000000
Si      -0.37520757      -2.01279240      -1.21807139       0.00000000
Si      -1.93347639       0.92440863      -2.62440857       0.00000000
Si      -2.10004164      -1.43026200      -2.66941822       0.00000000
Si       2.27254689      -1.90720062       2.30625585       0.00000000
Si       0.20509110       1.50157962      -3.44250088       0.00000000
Si      -1.59140268      -1.75945032       2.96024978       0.00000000
Si      -3.46716360       1.08227502       1.10439890       0.00000000
