10
Lattice="16.28999089631971 0.0 0.0 0.0 16.28999089631971 0.0 0.0 0.0 34.279985188174585" Properties=species:S:1:pos:R:3:initial_magmoms:R:1 pbc="T T T"
Si       0.37494693       2.14794631       0.96419368       0.00000000
Si       2.22000839      -0.85346568       0.31839268       0.00000000
Si      -0.96943419      -2.03463729       0.96631904       0.00000000
Si      -0.60193179       1.05647166      -2.13979215       0.00000000
Si       0.77206848       1.25830476       3.06117358       0.00000000
Si       2.02140071      -2.16414279      -1.97439113       0.00000000
Si      -2.42569503      -1.04974389       2.68950630       0.00000000
Si       1.30826686       2.28861535      -2.81024048       0.00000000
Si      -1.38043089      -3.47993496      -0.99984489       0.00000000
Si       3.80860919       0.87428430      -0.20293763       0.00000000
