10
Lattice="16.28999089631971 0.0 0.0 0.0 16.28999089631971 0.0 0.0 0.0 34.279985188174585" Properties=species:S:1:pos:R:3:initial_magmoms:R:1 pbc="T T T"
Si       1.35448092      -1.35509994       1.36256161       0.00000000
Si      -1.36101053       1.36032903       1.36221881       0.00000000
Si       1.36902789       1.34423451      -1.38244744       0.00000000
Si      -1.36133290      -1.34799750      -1.40734158       0.00000000
Si       2.71166598       2.71630863       0.00222820       0.00000000
Si       2.71578735      -2.71293660      -0.00017140       0.00000000
Si      -2.71667420      -2.71215468      -0.00051420       0.00000000
Si      -2.71489859       2.71639008       0.00311948       0.00000000
Si      -0.00256242      -2.71218726       2.71953558       0.00000000
Si       2.71239903       0.00273672       2.71967270       0.00000000
