10
Lattice="16.28999089631971 0.0 0.0 0.0 16.28999089631971 0.0 0.0 0.0 34.279985188174585" Properties=species:S:1:pos:R:3:initial_magmoms:R:1 pbc="T T T"
Si       1.35694071      -1.35455260      -1.35423157       0.00000000
Si      -1.35875867      -1.35545018       1.35769385       0.00000000
Si       1.35646830       1.35904212       1.35759101       0.00000000
Si      -1.36151983       1.36138788      -1.36071049       0.00000000
Si       2.70119151       0.00602730      -2.71299153       0.00000000
Si       2.71309950      -2.71212878       0.00143976       0.00000000
Si      -0.00114030      -2.71323797       2.71442786       0.00000000
Si       0.00433314      -2.72856588      -2.69912184       0.00000000
Si       2.71376739       0.00167787       2.71490778       0.00000000
Si      -2.71566395      -2.71386303       0.00089128       0.00000000
