10
Lattice="16.28999089631971 0.0 0.0 0.0 16.28999089631971 0.0 0.0 0.0 34.279985188174585" Properties=species:S:1:pos:R:3:initial_magmoms:R:1 pbc="T T T"
Si       0.90744748      -1.34293131      -1.65267329       0.00000000
Si       1.76506711       1.52943552       0.20214919       0.00000000
Si      -0.31162281      -1.93308543       1.30126896       0.00000000
Si      -1.91459043       1.40035356      -0.03047492       0.00000000
Si      -1.70760969      -1.13720490       3.00882454       0.00000000
Si       0.97767367       3.30989994       1.48596963       0.00000000
Si      -2.27254689       1.90720062      -2.30625585       0.00000000
Si       3.09249034      -2.02256640      -0.81085922       0.00000000
Si      -0.55835930      -3.11070582      -2.08854354       0.00000000
Si       1.70441944      -2.51926479       2.37313614       0.00000000
