10
Lattice="16.28999089631971 0.0 0.0 0.0 16.28999089631971 0.0 0.0 0.0 34.279985188174585" Properties=species:S:1:pos:R:3:initial_magmoms:R:1 pbc="T T T"
Si      -1.39598688       0.79588053       1.70755558       0.00000000
Si       0.31162281       1.93308543      -1.30126896       0.00000000
Si       2.01604225      -0.58617936       1.07186718       0.00000000
Si      -0.62058288      -2.03170509      -1.21087259       0.00000000
Si       1.21907029       0.59015412      -2.95394225       0.00000000
Si      -0.84717678      -0.92367558       3.10998483       0.00000000
Si      -0.24673648      -1.17762039      -3.38981251       0.00000000
Si       1.51137805      -0.58456665       3.36807899       0.00000000
Si      -2.72836227      -2.78047494      -0.41485661       0.00000000
Si      -1.60296762       3.33343899      -1.33174389       0.00000000
