10
Lattice="16.28999089631971 0.0 0.0 0.0 16.28999089631971 0.0 0.0 0.0 34.279985188174585" Properties=species:S:1:pos:R:3:initial_magmoms:R:1 pbc="T T T"
Si       1.23447330       1.02783384       1.80160418       0.00000000
Si       2.00691741      -0.97450038      -1.18708227       0.00000000
Si      -1.43050783      -1.59860286       1.48698573       0.00000000
Si      -1.64558470       1.60425549      -1.34888389       0.00000000
Si       2.62611660       2.25774513       0.37752569       0.00000000
Si       1.54385787       2.78542710      -1.99681025       0.00000000
Si      -2.05658140       0.15895782      -3.31504782       0.00000000
Si       3.80049528       0.52921323      -0.73434625       0.00000000
Si      -0.10936419       2.38267314       3.19225826       0.00000000
Si      -1.54820308      -2.14677765      -3.00529370       0.00000000
