10
Lattice="16.28999089631971 0.0 0.0 0.0 16.28999089631971 0.0 0.0 0.0 34.279985188174585" Properties=species:S:1:pos:R:3:initial_magmoms:R:1 pbc="T T T"
Si      -1.35237158      -1.35267273       1.35938728       0.00000000
Si       1.36061619       1.36479249       1.36144408       0.00000000
Si       1.34383749      -1.35483930      -1.39065408       0.00000000
Si      -1.44260189       1.31553153      -1.33335162       0.00000000
Si       0.20528215       2.51452440      -2.44628761       0.00000000
Si      -2.69616626      -2.72360655      -0.02479473       0.00000000
Si       0.00151648      -2.70873378       2.71848662       0.00000000
Si       2.72285604       2.70572015       0.01943333       0.00000000
Si      -2.71164176       0.00615762       2.71852090       0.00000000
Si       2.71635633       0.00689067       2.71948074       0.00000000
