10
Lattice="16.28999089631971 0.0 0.0 0.0 16.28999089631971 0.0 0.0 0.0 34.279985188174585" Properties=species:S:1:pos:R:3:initial_magmoms:R:1 pbc="T T T"
Si      -1.35633146      -1.35839052       1.35676829       0.00000000
Si      -1.35574014       1.35790182      -1.35803665       0.00000000
Si       1.35884664       1.35676152       1.35704253       0.00000000
Si       1.35783666      -1.35964485      -1.36098473       0.00000000
Si       0.00649971       2.69882948      -2.70004740       0.00000000
Si      -2.71349738       2.71353232      -0.00003428       0.00000000
Si      -2.71360749      -0.00083079       2.71401650       0.00000000
Si       0.00102627       2.71415739       2.71350230       0.00000000
Si       0.00112401      -2.71590138       2.71425646       0.00000000
Si       2.71609686      -0.00076563       2.71432502       0.00000000
