10
Lattice="16.28999089631971 0.0 0.0 0.0 16.28999089631971 0.0 0.0 0.0 34.279985188174585" Properties=species:S:1:pos:R:3:initial_magmoms:R:1 pbc="T T T"
Si       0.96195708       0.01337409       2.16282831       0.00000000
Si      -1.02351699      -1.69233552      -1.32749317       0.00000000
Si       1.72968849       1.10511360      -1.28241496       0.00000000
Si      -1.77735303       0.99913086       1.45240950       0.00000000
Si      -2.30462775      -0.22483458      -2.72179807       0.00000000
Si      -2.29467130      -2.87440308       0.30385796       0.00000000
Si       0.43010487       2.47840947      -2.74024071       0.00000000
Si       1.30802184      -3.20005647       1.43225286       0.00000000
Si      -3.15098936      -1.03742865       1.81262379       0.00000000
Si      -0.62380926       1.31483106       3.50890124       0.00000000
