10
Lattice="16.28999089631971 0.0 0.0 0.0 16.28999089631971 0.0 0.0 0.0 34.281931910070035" Properties=species:S:1:pos:R:3:initial_magmoms:R:1 pbc="T T T"
Si       0.67873914      -1.60870266      -1.52218719       0.00000000
Si      -0.17333863       2.07832707      -1.15036515       0.00000000
Si      -1.92323717      -0.64912392       1.27689983       0.00000000
Si       1.80364509       0.03442077       1.59644190       0.00000000
Si       0.30323835      -3.64231368      -0.30349811       0.00000000
Si      -1.59426744       3.34066916       0.27274720       0.00000000
Si      -0.82882543      -1.49144724      -3.33786217       0.00000000
Si       2.03308974       2.54995515      -1.94615208       0.00000000
Si       2.54283642       2.24741727       1.89003253       0.00000000
Si      -2.40706646       0.92973546       3.02202255       0.00000000
