10
Lattice="16.28999089631971 0.0 0.0 0.0 16.28999089631971 0.0 0.0 0.0 34.281931910070035" Properties=species:S:1:pos:R:3:initial_magmoms:R:1 pbc="T T T"
Si      -1.86373890      -0.33515046       1.35228584       0.00000000
Si       2.01618072      -0.28044864       1.19959403       0.00000000
Si       0.22804371      -1.91163150      -1.36980392       0.00000000
Si      -0.32964444       2.09927601      -1.19688576       0.00000000
Si      -1.17121842      -1.04964289      -2.99668819       0.00000000
Si       1.91117538       2.76229530      -0.66315006       0.00000000
Si       3.32073279       0.79622262      -0.39928188       0.00000000
Si      -1.45648890       1.14438879       3.05003090       0.00000000
Si      -3.11314932      -0.22921659      -1.76548620       0.00000000
Si      -1.77629418      -2.58441569       1.94464367       0.00000000
