10
Lattice="16.28999089631971 0.0 0.0 0.0 16.28999089631971 0.0 0.0 0.0 34.281931910070035" Properties=species:S:1:pos:R:3:initial_magmoms:R:1 pbc="T T T"
Si       1.96775055       0.76711239      -0.98348061       0.00000000
Si      -1.67490522       1.05642279      -1.22965930       0.00000000
Si      -0.63615708       1.07052993       2.00240876       0.00000000
Si      -0.43943904      -2.27843343      -0.50932695       0.00000000
Si       1.79776440      -0.36841464      -3.08009618       0.00000000
Si      -2.08215522      -0.42311646      -2.92740437       0.00000000
Si      -0.55232874       3.33264078       1.30871348       0.00000000
Si      -1.48496382      -2.97491957       1.50113807       0.00000000
Si      -2.94733341       0.52395156       2.24310234       0.00000000
Si       3.79615644       0.32485518       0.42293643       0.00000000
