10
Lattice="16.28999089631971 0.0 0.0 0.0 16.28999089631971 0.0 0.0 0.0 34.281931910070035" Properties=species:S:1:pos:R:3:initial_magmoms:R:1 pbc="T T T"
Si       1.35011520      -1.35575154       1.35999928       0.00000000
Si       1.35571896       1.35707103      -1.35674250       0.00000000
Si      -1.35853713      -1.35855342      -1.35698247       0.00000000
Si      -1.35870003       1.35754344       1.35886798       0.00000000
Si       2.71342530      -0.00135207      -2.71417063       0.00000000
Si       2.71492398       2.71292031       0.00198835       0.00000000
Si      -0.00128691       2.71376739      -2.71458201       0.00000000
Si      -0.00156384      -2.71547132      -2.71406778       0.00000000
Si      -2.71533123       2.71502172      -0.00119987       0.00000000
Si      -2.71588509      -0.00105885      -2.71454773       0.00000000
