10
Lattice="16.28999089631971 0.0 0.0 0.0 16.28999089631971 0.0 0.0 0.0 34.281931910070035" Properties=species:S:1:pos:R:3:initial_magmoms:R:1 pbc="T T T"
Si       1.05147063      -1.00603782       1.85695044       0.00000000
Si       0.92154159      -1.42257312      -1.68430654       0.00000000
Si       0.05932818       2.43584370       0.21494783       0.00000000
Si      -2.57504175      -0.72690867      -1.56353122       0.00000000
Si      -2.81281059       1.52458110      -0.90041544       0.00000000
Si       1.97648199       2.64419280      -1.06462599       0.00000000
Si      -0.83813679      -1.04425416      -3.26028211       0.00000000
Si      -0.00754227       2.62000215       2.57176341       0.00000000
Si      -3.25413438      -1.43755992       1.00165005       0.00000000
Si       0.79837290       0.64811394       3.55911788       0.00000000
