10
Lattice="16.28999089631971 0.0 0.0 0.0 16.28999089631971 0.0 0.0 0.0 34.281931910070035" Properties=species:S:1:pos:R:3:initial_magmoms:R:1 pbc="T T T"
Si       1.22737005      -0.66850902       1.82993627       0.00000000
Si      -2.17370502      -0.63734625       0.69770627       0.00000000
Si       0.54879381      -1.08965439      -2.04385564       0.00000000
Si       0.05045013       2.32935597      -0.49708829       0.00000000
Si      -3.15796311      -0.25640460      -1.36322178       0.00000000
Si      -1.69202601      -1.75267368      -2.57759134       0.00000000
Si       0.82378530      -2.99687130       1.91550402       0.00000000
Si       1.69749945       0.53219430      -3.32644628       0.00000000
Si       1.37608146       3.36199536       1.05026185       0.00000000
Si       0.43160355       0.36704628       3.76347259       0.00000000
