10
Lattice="16.28999089631971 0.0 0.0 0.0 16.28999089631971 0.0 0.0 0.0 34.281931910070035" Properties=species:S:1:pos:R:3:initial_magmoms:R:1 pbc="T T T"
Si      -1.32080949       1.34574948       1.53733981       0.00000000
Si       1.20539484      -1.45096659       1.63881439       0.00000000
Si       1.67304816       1.55611854      -1.14052623       0.00000000
Si      -1.86816978      -0.72389502      -1.77247972       0.00000000
Si      -1.78434144       1.53821583      -2.46617500       0.00000000
Si      -2.20043691       2.64025062      -0.37638154       0.00000000
Si       0.34355610       2.33660502      -2.91040052       0.00000000
Si      -0.02655270       2.61633690       3.07039922       0.00000000
Si       2.83115313      -2.82511606       0.55721883       0.00000000
Si       2.59434540      -0.20012265       3.17267600       0.00000000
