10
Lattice="16.28999089631971 0.0 0.0 0.0 16.28999089631971 0.0 0.0 0.0 34.281931910070035" Properties=species:S:1:pos:R:3:initial_magmoms:R:1 pbc="T T T"
Si       1.32563133       1.03263939       1.54735014       0.00000000
Si      -2.08510371       0.96457977       0.36451999       0.00000000
Si       0.62734419       0.27867303      -2.23257778       0.00000000
Si      -0.05045013      -2.32935597       0.49708829       0.00000000
Si      -3.01852071      -0.30522573      -1.44981799       0.00000000
Si      -1.48488237      -0.00298107      -3.19758042       0.00000000
Si       1.64704932      -1.79716167      -2.82935799       0.00000000
Si       0.49834368      -3.41901036      -1.54676735       0.00000000
Si       0.64234728       0.36955494       3.71976310       0.00000000
Si      -2.76340302       0.47169324       2.57172912       0.00000000
