10
Lattice="16.28999089631971 0.0 0.0 0.0 16.28999089631971 0.0 0.0 0.0 34.281931910070035" Properties=species:S:1:pos:R:3:initial_magmoms:R:1 pbc="T T T"
Si       0.88308090       1.11708675      -1.88204483       0.00000000
Si       0.21396915      -2.38964526      -0.23016902       0.00000000
Si      -2.24440362       0.01138671       0.89030227       0.00000000
Si       1.64367729       1.11309570       1.51005138       0.00000000
Si      -0.46433016      -2.88253179       1.97704012       0.00000000
Si       3.18257730       0.67403133      -1.45184063       0.00000000
Si       3.52145817       0.01718595       0.77391505       0.00000000
Si      -0.16783587       3.21101964      -1.69740224       0.00000000
Si       0.94170861       0.51668622       3.61030083       0.00000000
Si      -3.75196819       0.12864213      -0.92537271       0.00000000
