10
Lattice="16.28999089631971 0.0 0.0 0.0 16.28999089631971 0.0 0.0 0.0 34.281931910070035" Properties=species:S:1:pos:R:3:initial_magmoms:R:1 pbc="T T T"
Si      -0.83896758      -1.68521679       1.36534795       0.00000000
Si      -0.10264329      -1.30583898      -1.96919028       0.00000000
Si       1.82086362       0.95184099       1.24160725       0.00000000
Si      -1.65542238       1.83158244      -0.11306260       0.00000000
Si      -2.21421825      -0.35644149       2.65212784       0.00000000
Si       0.51417756       2.35385613       2.63363273       0.00000000
Si      -2.07601389      -0.20383677      -2.92003447       0.00000000
Si      -2.55192624      -2.76038937       0.14835754       0.00000000
Si       1.94051367      -0.55923570      -3.20203780       0.00000000
Si      -3.50865423       1.01302623       1.17338959       0.00000000
