10
Lattice="16.28999089631971 0.0 0.0 0.0 16.28999089631971 0.0 0.0 0.0 34.281931910070035" Properties=species:S:1:pos:R:3:initial_magmoms:R:1 pbc="T T T"
Si       1.36212093      -1.35195597      -1.36178194       0.00000000
Si      -1.35677781       1.36267479      -1.36171338       0.00000000
Si      -1.35966114      -1.33348311       1.39239572       0.00000000
Si       1.38191328       1.34907264       1.38286534       0.00000000
Si      -2.71668330      -2.71011843       0.00236545       0.00000000
Si       2.71329498      -2.71381626      -0.00308538       0.00000000
Si       0.00135207      -2.71189404      -2.71852444       0.00000000
Si      -2.71355562       0.00322542      -2.71948433       0.00000000
Si      -2.71546155       2.71932072      -0.00411383       0.00000000
Si       2.71643895       0.00325800      -2.71903867       0.00000000
