10
Lattice="16.28999089631971 0.0 0.0 0.0 16.28999089631971 0.0 0.0 0.0 34.281931910070035" Properties=species:S:1:pos:R:3:initial_magmoms:R:1 pbc="T T T"
Si       0.69300918      -1.29722157       1.82342270       0.00000000
Si      -2.24010306       0.27243396       0.65759639       0.00000000
Si       0.50036364      -1.34521191      -1.90168839       0.00000000
Si       0.82525140       2.22247728      -0.40990929       0.00000000
Si      -0.01640403       0.28140975       3.44015951       0.00000000
Si      -3.19070601      -1.77793947       0.11237624       0.00000000
Si      -3.09544209       1.65569931      -1.08999463       0.00000000
Si       3.07097451       2.14128792       0.25008683       0.00000000
Si       2.18351160      -0.18233397      -3.15555075       0.00000000
Si      -2.31590043       0.72446517       3.00995530       0.00000000
