10
Lattice="16.28999089631971 0.0 0.0 0.0 16.28999089631971 0.0 0.0 0.0 34.281931910070035" Properties=species:S:1:pos:R:3:initial_magmoms:R:1 pbc="T T T"
Si      -1.39952277       1.78530255       0.55673889       0.00000000
Si      -1.34071587      -1.51702254      -1.19883983       0.00000000
Si       1.23336477       0.67657257      -1.92294320       0.00000000
Si       0.85533903      -1.38326535       1.74759102       0.00000000
Si      -2.03525631       0.81676431       2.67563772       0.00000000
Si      -0.09526392      -3.43363878       1.20237087       0.00000000
Si       3.09544209      -1.65569931       1.08999463       0.00000000
Si       1.14668568      -1.32164028      -3.36388217       0.00000000
Si      -0.02839347      -3.61779723      -1.15444470       0.00000000
Si      -2.20491666      -0.55320840      -3.14646603       0.00000000
