10
Lattice="16.28999089631971 0.0 0.0 0.0 16.28999089631971 0.0 0.0 0.0 34.281931910070035" Properties=species:S:1:pos:R:3:initial_magmoms:R:1 pbc="T T T"
Si      -0.95060295      -2.05037343      -0.54522015       0.00000000
Si       2.24010306      -0.27243396      -0.65759639       0.00000000
Si      -0.85533903       1.38326535      -1.74759102       0.00000000
Si      -0.07579737       0.45203121       2.35235892       0.00000000
Si       2.93311224      -1.56965553       1.16582631       0.00000000
Si       2.22369903       0.00897579       2.78256312       0.00000000
Si      -3.23718138      -1.70030133      -0.02581431       0.00000000
Si      -2.19605490      -0.13375719      -2.94643085       0.00000000
Si      -2.89059534       2.20002966       0.92804670       0.00000000
Si      -1.12671414       2.54596410       2.53700151       0.00000000
