10
Lattice="16.28999089631971 0.0 0.0 0.0 16.28999089631971 0.0 0.0 0.0 34.281931910070035" Properties=species:S:1:pos:R:3:initial_magmoms:R:1 pbc="T T T"
Si       0.80179380      -1.30380273       1.81070409       0.00000000
Si       1.10892546       2.09827322      -0.34285379       0.00000000
Si      -2.16834561       0.70296956       0.74984912       0.00000000
Si       0.74160225      -1.52476029      -1.70395010       0.00000000
Si       2.98732536      -1.60594965      -1.04395397       0.00000000
Si       0.42862248       0.10306683       3.68013317       0.00000000
Si       0.06561612       2.81242682      -2.45445057       0.00000000
Si       3.07141434      -1.75282029       1.29685193       0.00000000
Si       0.92434347       3.41082368       1.72037115       0.00000000
Si      -0.08364915      -3.74723757      -1.29404081       0.00000000
