10
Lattice="16.28999089631971 0.0 0.0 0.0 16.28999089631971 0.0 0.0 0.0 34.281931910070035" Properties=species:S:1:pos:R:3:initial_magmoms:R:1 pbc="T T T"
Si      -0.73919133      -2.21299650      -0.29359063       0.00000000
Si       1.04552478       0.69648614      -2.01046502       0.00000000
Si      -1.64017494       1.21210536       1.22413991       0.00000000
Si       1.29837816      -2.06050581       1.34200126       0.00000000
Si       1.48496382       2.97491957      -1.50113807       0.00000000
Si       1.32201495      -3.35082042      -0.69222116       0.00000000
Si      -0.94266972      -3.13786125       1.94481508       0.00000000
Si       3.00358278      -0.57230028      -2.30971217       0.00000000
Si      -1.46236959       3.49887113       0.74196427       0.00000000
Si      -0.50974668       0.30253788      -3.83618461       0.00000000
