10
Lattice="16.28999089631971 0.0 0.0 0.0 16.28999089631971 0.0 0.0 0.0 34.281931910070035" Properties=species:S:1:pos:R:3:initial_magmoms:R:1 pbc="T T T"
Si       1.63756854       0.94498290      -1.52660956       0.00000000
Si      -0.84541842      -1.59328255      -1.66901679       0.00000000
Si      -1.68160041       1.82337228      -0.12670609       0.00000000
Si      -0.75238623      -0.62650363       2.56435850       0.00000000
Si       1.48411674      -0.16208550       2.53566451       0.00000000
Si      -2.49367320      -2.54882204      -0.31659382       0.00000000
Si       0.31397346       2.28799566      -2.97927296       0.00000000
Si      -2.40391530      -0.44331443      -2.99322571       0.00000000
Si       3.41689266       1.87059699      -0.31049163       0.00000000
Si      -3.65892948       0.97039530      -1.49849836       0.00000000
