10
Lattice="16.28999089631971 0.0 0.0 0.0 16.28999089631971 0.0 0.0 0.0 34.281931910070035" Properties=species:S:1:pos:R:3:initial_magmoms:R:1 pbc="T T T"
Si      -0.82774377      -1.83834279      -1.23273238       0.00000000
Si       1.33320618      -1.33604064       1.52841965       0.00000000
Si      -1.36407573       1.36925595       1.51724716       0.00000000
Si       1.79497881       0.96593184      -1.37915059       0.00000000
Si       2.52123588      -2.80189629       0.06840621       0.00000000
Si       2.67046857       2.67441075       0.11882810       0.00000000
Si      -2.66393628      -2.68381008       0.08806690       0.00000000
Si      -2.50471782       2.84156244       0.04834098       0.00000000
Si       3.51971514      -1.01876031      -1.26543736       0.00000000
Si       0.63444663      -3.72475737      -1.02124218       0.00000000
