10
Lattice="16.28999089631971 0.0 0.0 0.0 16.28999089631971 0.0 0.0 0.0 34.281931910070035" Properties=species:S:1:pos:R:3:initial_magmoms:R:1 pbc="T T T"
Si      -1.34662914      -1.36249560      -1.37724310       0.00000000
Si       1.37109672       1.35298224      -1.37542616       0.00000000
Si       1.35539316      -1.45023354       1.31570700       0.00000000
Si      -1.33372746       1.48716297       1.39534397       0.00000000
Si      -2.70019782      -2.69472438       0.00349676       0.00000000
Si      -2.70083313      -0.00516393      -2.73446555       0.00000000
Si       2.72759760       2.71181259      -0.00442237       0.00000000
Si      -2.70713736       2.74106943      -0.01230722       0.00000000
Si       0.01312974       2.71129131      -2.73713954       0.00000000
Si       0.01319490      -2.71849149      -2.73614536       0.00000000
