10
Lattice="16.28999089631971 0.0 0.0 0.0 16.28999089631971 0.0 0.0 0.0 34.281931910070035" Properties=species:S:1:pos:R:3:initial_magmoms:R:1 pbc="T T T"
Si       1.35420399      -1.35733167       1.35722244       0.00000000
Si      -1.35641943       1.35666378       1.35941649       0.00000000
Si       1.35583299       1.35824391      -1.35886798       0.00000000
Si      -1.35920502      -1.35584928      -1.35873085       0.00000000
Si       2.71402803      -2.71332756      -0.00167982       0.00000000
Si       0.00063531      -2.68956045       2.73796230       0.00000000
Si      -2.71492398      -2.71292031      -0.00198835       0.00000000
Si       2.71396287       2.71645524      -0.00267399       0.00000000
Si      -0.00149868      -2.71427238      -2.71615898       0.00000000
Si       2.71430496       0.00089595      -2.71643324       0.00000000
