10
Lattice="16.28999089631971 0.0 0.0 0.0 16.28999089631971 0.0 0.0 0.0 34.281931910070035" Properties=species:S:1:pos:R:3:initial_magmoms:R:1 pbc="T T T"
Si       2.24406153      -0.82616364      -0.28248328       0.00000000
Si      -0.62758854      -2.11770000       0.98118372       0.00000000
Si      -0.49080141       2.02294107       1.27330023       0.00000000
Si      -1.93780953      -0.34197597      -1.55989734       0.00000000
Si      -0.17861985      -3.53451298      -0.96939073       0.00000000
Si      -2.98115145      -1.96735959       1.10788981       0.00000000
Si       2.05788312      -3.07009485      -0.99808472       0.00000000
Si      -2.90854692       2.20864707       1.53915676       0.00000000
Si      -1.10783403      -1.08463707      -3.66045533       0.00000000
Si       3.44245167      -1.05415848       1.72373078       0.00000000
