10
Lattice="16.28999089631971 0.0 0.0 0.0 16.28999089631971 0.0 0.0 0.0 34.281931910070035" Properties=species:S:1:pos:R:3:initial_magmoms:R:1 pbc="T T T"
Si      -1.14870564      -1.62184869       1.28259064       0.00000000
Si      -0.46108845      -0.04567716      -2.33624640       0.00000000
Si       2.14843923      -0.33300018       0.97645281       0.00000000
Si      -1.01970513       2.07583470       0.59678020       0.00000000
Si      -2.87883396       0.14002884      -2.07038987       0.00000000
Si      -3.13193169       1.79418060      -0.36822244       0.00000000
Si       2.60835480       1.80968868       1.81852038       0.00000000
Si       0.69170598       1.98237897      -3.06984587       0.00000000
Si      -1.64704932       1.79716167       2.82935799       0.00000000
Si      -1.69749945      -0.53219430       3.32644628       0.00000000
