10
Lattice="16.28999089631971 0.0 0.0 0.0 16.28999089631971 0.0 0.0 0.0 34.281931910070035" Properties=species:S:1:pos:R:3:initial_magmoms:R:1 pbc="T T T"
Si      -0.35363961      -2.27771667      -0.26174270       0.00000000
Si       2.24472942       0.65067147      -0.23891092       0.00000000
Si      -0.53887320       0.97590132      -2.14118210       0.00000000
Si      -0.85488291       0.51883650       2.23662305       0.00000000
Si      -0.07895763       3.11859018      -1.29911454       0.00000000
Si      -2.42646066      -2.27901987      -1.57117610       0.00000000
Si       2.99672469      -0.35411202      -2.18598861       0.00000000
Si       2.18515689       2.95422408      -0.73366803       0.00000000
Si      -3.15744183       0.10819818       2.03874763       0.00000000
Si       3.24752553       0.44354412       1.84289484       0.00000000
