10
Lattice="16.28999089631971 0.0 0.0 0.0 16.28999089631971 0.0 0.0 0.0 34.281931910070035" Properties=species:S:1:pos:R:3:initial_magmoms:R:1 pbc="T T T"
Si      -0.78310917      -2.08542951      -0.80826556       0.00000000
Si      -1.20485727       0.71566857       1.95184288       0.00000000
Si       0.25433577       1.38264633      -2.11615628       0.00000000
Si      -2.11260123      -1.30494303      -2.57813985       0.00000000
Si      -2.66729202       2.40528366       0.94501626       0.00000000
Si      -1.85140737       1.02692160      -3.11893763       0.00000000
Si       0.93217896      -3.06325305      -2.15640329       0.00000000
Si       0.29740653       1.68370182       3.46521074       0.00000000
Si       1.58446314       3.05259939       2.00288871       0.00000000
Si       1.68177960       0.24091281      -3.77564268       0.00000000
