10
Lattice="16.28999089631971 0.0 0.0 0.0 16.28999089631971 0.0 0.0 0.0 34.281931910070035" Properties=species:S:1:pos:R:3:initial_magmoms:R:1 pbc="T T T"
Si      -1.37340990       1.25390646      -1.40765119       0.00000000
Si       1.33372746      -1.48716297      -1.39534397       0.00000000
Si      -1.83598074      -0.69467076       1.46034255       0.00000000
Si       1.56388887       1.30958568       1.44758967       0.00000000
Si      -0.56596347      -0.08754246       3.54979319       0.00000000
Si      -2.68512957       2.63956644       0.13455666       0.00000000
Si      -0.01366731       2.57909796      -2.77258707       0.00000000
Si      -2.65520484      -2.76517863       0.12656896       0.00000000
Si       2.70482418      -0.13418073      -2.77077013       0.00000000
Si      -2.72352510      -0.13566312      -2.77039303       0.00000000
