10
Lattice="16.28999089631971 0.0 0.0 0.0 16.28999089631971 0.0 0.0 0.0 34.281931910070035" Properties=species:S:1:pos:R:3:initial_magmoms:R:1 pbc="T T T"
Si       1.25646399       1.51065315      -1.25897037       0.00000000
Si      -0.45170541       1.12280454       2.04951216       0.00000000
Si      -1.92832875      -0.45901962      -1.35763383       0.00000000
Si       1.62119709      -1.75369995      -0.31299421       0.00000000
Si      -0.01167993      -0.63170991       3.53073242       0.00000000
Si       0.25974405       1.10719872      -3.44564462       0.00000000
Si      -0.90207504      -1.03568562      -3.46871637       0.00000000
Si      -2.86681194       1.75739778      -1.65742949       0.00000000
Si       3.68305497      -0.65075292       0.36959371       0.00000000
Si       1.14386751      -2.13167682      -2.93734613       0.00000000
