10
Lattice="16.28999089631971 0.0 0.0 0.0 16.28999089631971 0.0 0.0 0.0 34.281931910070035" Properties=species:S:1:pos:R:3:initial_magmoms:R:1 pbc="T T T"
Si       1.92832875       0.45901962       1.35763383       0.00000000
Si       1.02625371      -0.57666600      -2.11108255       0.00000000
Si      -0.93848319       2.21641740      -0.29979566       0.00000000
Si      -1.15279443      -2.02805613       0.73359947       0.00000000
Si       2.18807280       1.56621834      -2.08801079       0.00000000
Si      -0.69170598      -1.98237897       3.06984587       0.00000000
Si      -2.64552858       1.80788049      -1.92212043       0.00000000
Si       3.18479274       1.96967277       0.09866346       0.00000000
Si       0.74466477       3.37929534      -1.55365802       0.00000000
Si       3.07219626      -1.67265720      -1.57971231       0.00000000
