10
Lattice="16.28999089631971 0.0 0.0 0.0 16.28999089631971 0.0 0.0 0.0 34.281931910070035" Properties=species:S:1:pos:R:3:initial_magmoms:R:1 pbc="T T T"
Si       0.64301517      -0.72558918      -2.11598487       0.00000000
Si       0.56314530      -1.15457004       1.95791079       0.00000000
Si      -2.28675762       0.29452320       0.44220289       0.00000000
Si       1.05210594       2.11137948      -0.24617869       0.00000000
Si       2.90712969      -0.88995528      -1.55053836       0.00000000
Si      -0.34834536       3.24174258       1.22009464       0.00000000
Si      -2.39000364       2.63329479       0.26345679       0.00000000
Si      -0.13291011      -3.32534286       1.41975272       0.00000000
Si      -0.86429853      -0.01283652       3.61739719       0.00000000
Si       0.20298969       1.02892527      -3.59720513       0.00000000
