10
Lattice="16.28999089631971 0.0 0.0 0.0 16.28999089631971 0.0 0.0 0.0 34.281931910070035" Properties=species:S:1:pos:R:3:initial_magmoms:R:1 pbc="T T T"
Si       1.50226380       0.96803325       1.51336786       0.00000000
Si       1.20485727      -0.71566857      -1.95184288       0.00000000
Si      -1.46243475       1.68961509      -1.00682662       0.00000000
Si      -1.27785276      -1.74087972       1.45081701       0.00000000
Si       2.78932041       2.33693082       0.05104583       0.00000000
Si      -0.05880690       2.21377842       2.99398475       0.00000000
Si      -3.09241215       0.66101562      -2.36973987       0.00000000
Si       0.42174810      -2.80109808      -2.76010844       0.00000000
Si      -2.57210955      -3.01146714      -0.08224240       0.00000000
Si       2.64290589      -0.50427324       2.98227404       0.00000000
