10
Lattice="16.28999089631971 0.0 0.0 0.0 16.28999089631971 0.0 0.0 0.0 34.281931910070035" Properties=species:S:1:pos:R:3:initial_magmoms:R:1 pbc="T T T"
Si      -1.35622395       1.35786556       1.36150769       0.00000000
Si       1.35661491      -1.36045935       1.35993072       0.00000000
Si       1.35690813       1.35298100      -1.37261161       0.00000000
Si      -1.35713619      -1.36405944      -1.36869318       0.00000000
Si      -0.11631060       2.55161414      -2.74938162       0.00000000
Si       0.08635329      -2.65658949      -2.76718081       0.00000000
Si      -2.71523349       2.71330868       0.00884474       0.00000000
Si      -2.71254564      -2.71774215       0.00267399       0.00000000
Si       0.00122175       2.71422092       2.71773595       0.00000000
Si      -2.71404432      -0.00105885       2.71814734       0.00000000
