10
Lattice="16.28999089631971 0.0 0.0 0.0 16.28999089631971 0.0 0.0 0.0 34.281931910070035" Properties=species:S:1:pos:R:3:initial_magmoms:R:1 pbc="T T T"
Si       1.35586557       1.35609363       1.35845659       0.00000000
Si       1.35736425      -1.36058967      -1.35701675       0.00000000
Si      -1.35913986      -1.35855342       1.35797665       0.00000000
Si      -1.36264221       1.35570267      -1.35756526       0.00000000
Si      -2.71458189       2.71348687       0.00075420       0.00000000
Si      -0.00154755       2.71332924       2.71509624       0.00000000
Si       2.71368594       2.71501804       0.00181694       0.00000000
Si       2.71308321      -2.71583622      -0.00095989       0.00000000
Si       2.71383255      -0.00169416       2.71567904       0.00000000
Si      -2.71639008      -2.71409319       0.00044567       0.00000000
