10
Lattice="16.28999089631971 0.0 0.0 0.0 16.28999089631971 0.0 0.0 0.0 34.281931910070035" Properties=species:S:1:pos:R:3:initial_magmoms:R:1 pbc="T T T"
Si      -1.35431802      -1.35521397       1.35725672       0.00000000
Si       1.35734796      -1.35785295      -1.35777095       0.00000000
Si      -1.35796698       1.35778779      -1.35722244       0.00000000
Si       1.35755973       1.35842310       1.35732529       0.00000000
Si       2.71269225      -0.00161271      -2.71543906       0.00000000
Si       2.71078632       0.00237834       2.71811305       0.00000000
Si       2.71464705       2.71463964      -0.00006856       0.00000000
Si      -2.71383255       0.00169416      -2.71567904       0.00000000
Si       2.71507059      -2.71484253       0.00010285       0.00000000
Si       0.00364896       2.71329070       2.71684462       0.00000000
