10
Lattice="16.28999089631971 0.0 0.0 0.0 16.28999089631971 0.0 0.0 0.0 34.281931910070035" Properties=species:S:1:pos:R:3:initial_magmoms:R:1 pbc="T T T"
Si      -1.35403464       1.35509994      -1.35794236       0.00000000
Si       1.35838624       1.35534429       1.35732529       0.00000000
Si      -1.35594057      -1.36001952       1.35759954       0.00000000
Si       1.35666927      -1.36003581      -1.36356460       0.00000000
Si      -2.71286499       2.71199178       0.00051423       0.00000000
Si       0.00065484       2.70309744      -2.72230917       0.00000000
Si       0.00150993       2.71257822       2.71547334       0.00000000
Si      -2.71390755      -0.00265527       2.71509624       0.00000000
Si       2.71615937       2.71422351       0.00037710       0.00000000
Si       2.71596389      -0.00190593       2.71530193       0.00000000
