10
Lattice="16.28999089631971 0.0 0.0 0.0 16.28999089631971 0.0 0.0 0.0 34.281931910070035" Properties=species:S:1:pos:R:3:initial_magmoms:R:1 pbc="T T T"
Si      -1.35337320       1.35813640       1.36013641       0.00000000
Si      -1.35711990      -1.35771442      -1.35691391       0.00000000
Si       1.35771743       1.35797350      -1.35681106       0.00000000
Si       1.35669557      -1.35563818       1.36342748       0.00000000
Si       0.01389537       2.69494267       2.71718744       0.00000000
Si      -2.71420722      -2.71393096       0.00047995       0.00000000
Si      -2.71446786       0.00071350      -2.71447917       0.00000000
Si       0.00061902      -2.71492465      -2.71465058       0.00000000
Si       0.00104256       2.71510969      -2.71482199       0.00000000
Si       2.71521624       0.00039748      -2.71485627       0.00000000
