10
Lattice="16.28999089631971 0.0 0.0 0.0 16.28999089631971 0.0 0.0 0.0 34.281931910070035" Properties=species:S:1:pos:R:3:initial_magmoms:R:1 pbc="T T T"
Si       0.43942275      -2.25260238      -0.01155302       0.00000000
Si       1.97024033       1.24067898       0.06499858       0.00000000
Si      -1.26257274       0.52404930      -1.90823624       0.00000000
Si      -0.85942782       0.34935534       2.21502542       0.00000000
Si      -1.10260494       2.64964995       1.88955258       0.00000000
Si       2.14184245      -2.30260453       1.57127895       0.00000000
Si       0.72355293      -2.55253616      -2.32579041       0.00000000
Si       3.33031850      -0.30069711       1.13816078       0.00000000
Si       1.16056706       3.07320624       1.36613575       0.00000000
Si      -3.31447743       1.18988676      -0.92790957       0.00000000
