10
Lattice="16.28999089631971 0.0 0.0 0.0 16.28999089631971 0.0 0.0 0.0 34.281931910070035" Properties=species:S:1:pos:R:3:initial_magmoms:R:1 pbc="T T T"
Si       1.26257274      -0.52404930       1.90823624       0.00000000
Si       0.46623609       1.52261001      -1.73778638       0.00000000
Si      -2.05190469       0.66583746       0.98032667       0.00000000
Si       0.36072576      -1.71453716      -1.60621225       0.00000000
Si      -1.64949282      -2.76915013      -0.99757049       0.00000000
Si      -3.25029483       0.89383230      -1.02588739       0.00000000
Si      -1.72918350       1.84779099      -2.53898986       0.00000000
Si       1.98612567      -3.07658546      -0.41755416       0.00000000
Si      -2.70330921      -1.18931661       2.25798071       0.00000000
Si      -1.68642225      -3.09264740       1.33181952       0.00000000
