10
Lattice="16.28999089631971 0.0 0.0 0.0 16.28999089631971 0.0 0.0 0.0 34.281931910070035" Properties=species:S:1:pos:R:3:initial_magmoms:R:1 pbc="T T T"
Si      -2.11493070       0.19997604      -1.08063566       0.00000000
Si       1.32905223       1.98993753       0.12176949       0.00000000
Si       1.09550250      -2.01972284      -0.78951333       0.00000000
Si       0.05988204      -0.66930560       2.39030904       0.00000000
Si       3.23257117       0.89871930      -0.74487823       0.00000000
Si       3.21886460      -1.32155231       0.01391847       0.00000000
Si      -0.24557175      -3.55026608       0.38810597       0.00000000
Si      -2.54083275      -1.86651569      -2.06373917       0.00000000
Si      -3.65290218       0.88497054       0.55300215       0.00000000
Si       1.14166836       2.95787304       2.33700060       0.00000000
