10
Lattice="16.28999089631971 0.0 0.0 0.0 16.28999089631971 0.0 0.0 0.0 34.281931910070035" Properties=species:S:1:pos:R:3:initial_magmoms:R:1 pbc="T T T"
Si      -1.31979951       1.19268701       1.46541628       0.00000000
Si       0.06304230      -2.31454089       0.22430681       0.00000000
Si      -0.05988204       0.66930560      -2.39030904       0.00000000
Si       2.02911498       0.38476817       1.43864208       0.00000000
Si       3.37228968      -0.91189465      -0.03123086       0.00000000
Si      -0.30545379      -2.88096048      -2.00220307       0.00000000
Si      -1.19089674       3.34124027       0.60497359       0.00000000
Si       1.03562046      -1.35041724      -3.17982237       0.00000000
Si       1.26917019       2.65924313      -2.26853955       0.00000000
Si       1.08178632       3.62717864      -0.05330843       0.00000000
