10
Lattice="16.28999089631971 0.0 0.0 0.0 16.28999089631971 0.0 0.0 0.0 34.281931910070035" Properties=species:S:1:pos:R:3:initial_magmoms:R:1 pbc="T T T"
Si       1.75967838      -0.37831896       1.57597557       0.00000000
Si      -1.18521153      -1.45937223      -1.50878295       0.00000000
Si      -1.73690496       0.31734549       1.69675089       0.00000000
Si       1.59037641       1.31101920      -1.45742859       0.00000000
Si       0.83813679       1.04425416       3.26028211       0.00000000
Si      -3.02818882      -2.29361571      -0.17089553       0.00000000
Si      -2.44887896      -0.08638587      -2.95061325       0.00000000
Si       0.25498737       2.62764216      -2.93563203       0.00000000
Si      -1.97467380       2.56883526       2.35986667       0.00000000
Si       3.31607385       2.32977951      -0.07065510       0.00000000
