10
Lattice="16.28999089631971 0.0 0.0 0.0 16.28999089631971 0.0 0.0 0.0 34.281931910070035" Properties=species:S:1:pos:R:3:initial_magmoms:R:1 pbc="T T T"
Si       2.12452129       0.00607617       0.92317866       0.00000000
Si      -0.99072522      -1.96843473      -0.75505997       0.00000000
Si      -0.05711274       2.29689000      -0.77693186       0.00000000
Si      -1.59874947       1.47312099      -2.39949660       0.00000000
Si       2.80361393       0.71672742      -1.64200261       0.00000000
Si      -0.67794093       2.08821510       2.50625060       0.00000000
Si      -3.21712839       0.60729120      -0.80068925       0.00000000
Si       1.36524928       0.97143786       2.95746964       0.00000000
Si      -2.73979881       0.98526807       1.82366267       0.00000000
Si      -0.28083960      -0.09171270      -3.72082584       0.00000000
