10
Lattice="16.28999089631971 0.0 0.0 0.0 16.28999089631971 0.0 0.0 0.0 34.281931910070035" Properties=species:S:1:pos:R:3:initial_magmoms:R:1 pbc="T T T"
Si      -0.99847926      -1.78313598       1.33384356       0.00000000
Si      -0.01633887      -1.77277554      -1.73182132       0.00000000
Si       1.83358841       0.98800479       1.37222564       0.00000000
Si      -1.72473633       1.98469215      -0.11371323       0.00000000
Si       2.43124082      -1.46173428      -1.58708292       0.00000000
Si      -1.05590151       1.56121731      -2.83223767       0.00000000
Si      -2.18650896      -0.31728033       2.79385701       0.00000000
Si       2.97837305       0.99502578      -1.74807097       0.00000000
Si       0.53425992       2.38684338       2.80529347       0.00000000
Si      -1.41928254      -0.86159439      -3.38712533       0.00000000
