10
Lattice="16.28999089631971 0.0 0.0 0.0 16.28999089631971 0.0 0.0 0.0 34.281931910070035" Properties=species:S:1:pos:R:3:initial_magmoms:R:1 pbc="T T T"
Si      -0.59515515       1.90760787      -1.25698202       0.00000000
Si      -0.36338103      -2.42281170      -0.55488766       0.00000000
Si       2.52085862      -0.01205460      -0.68193657       0.00000000
Si      -0.66883482       0.42347484       2.71852444       0.00000000
Si      -1.21451724       0.60266484      -3.07447394       0.00000000
Si       1.05590151      -1.56121731       2.83223767       0.00000000
Si       1.03956264      -3.33399285       1.10041635       0.00000000
Si      -1.85121189       2.97978309       1.24878863       0.00000000
Si       1.21577157       3.44981475      -0.88361729       0.00000000
Si      -2.63606409      -2.70875007       0.10339436       0.00000000
