10
Lattice="16.28999089631971 0.0 0.0 0.0 16.28999089631971 0.0 0.0 0.0 34.281931910070035" Properties=species:S:1:pos:R:3:initial_magmoms:R:1 pbc="T T T"
Si       1.70829062       0.99497691      -1.24903615       0.00000000
Si       1.38350649      -1.30632768       1.42102801       0.00000000
Si      -1.33753932       1.41367878       1.41963959       0.00000000
Si      -0.87548976      -1.70847891      -1.49797869       0.00000000
Si       0.12948921       1.84490766      -2.85739518       0.00000000
Si      -2.05786683       0.84782934      -2.96771449       0.00000000
Si      -2.67046857      -2.67441075      -0.11882810       0.00000000
Si       2.68283498      -2.70516627      -0.01203982       0.00000000
Si       0.02881701      -2.65432518       2.78539481       0.00000000
Si      -2.60346780       2.83533966       0.01636278       0.00000000
