10
Lattice="16.28999089631971 0.0 0.0 0.0 16.28999089631971 0.0 0.0 0.0 34.281931910070035" Properties=species:S:1:pos:R:3:initial_magmoms:R:1 pbc="T T T"
Si       1.35690813       1.35728280      -1.35626255       0.00000000
Si       1.35736904      -1.35702216       1.35742813       0.00000000
Si      -1.35700587      -1.35760860      -1.35753098       0.00000000
Si      -1.35782037       1.35806472       1.35763383       0.00000000
Si       2.71095641      -0.00055386      -2.71142807       0.00000000
Si       2.71424536      -2.71425609      -0.00071992       0.00000000
Si       0.00039096      -2.71485882       2.71375925       0.00000000
Si      -2.71551042       0.00086337       2.71358784       0.00000000
Si       2.71433495       2.71495656      -0.00006856       0.00000000
Si      -2.71516833      -2.71469592      -0.00017141       0.00000000
