10
Lattice="16.28999089631971 0.0 0.0 0.0 16.28999089631971 0.0 0.0 0.0 34.281931910070035" Properties=species:S:1:pos:R:3:initial_magmoms:R:1 pbc="T T T"
Si      -1.35769005      -1.35720135       1.35595401       0.00000000
Si      -1.35772263       1.35698958      -1.35787380       0.00000000
Si       1.35782037      -1.35806472      -1.35763383       0.00000000
Si       1.35809730       1.35782037       1.35828518       0.00000000
Si       2.71472850      -0.00078192      -2.71389637       0.00000000
Si      -0.00237834       2.71322982      -2.71554191       0.00000000
Si       2.71477282       2.71459818      -0.00017141       0.00000000
Si      -2.71507059       2.71484253      -0.00010285       0.00000000
Si       2.71431983      -0.00193851       2.71581616       0.00000000
Si       2.71518941      -2.71508688      -0.00020569       0.00000000
