10
Lattice="16.28999089631971 0.0 0.0 0.0 16.28999089631971 0.0 0.0 0.0 34.281931910070035" Properties=species:S:1:pos:R:3:initial_magmoms:R:1 pbc="T T T"
Si       1.81905543       0.79762356       1.32945406       0.00000000
Si       1.14508926      -1.52661735      -1.45502885       0.00000000
Si      -1.35234693      -1.44168129       1.39232716       0.00000000
Si      -1.55955573       1.19878110      -1.43908774       0.00000000
Si       2.65004305       2.59623504      -0.09732646       0.00000000
Si       2.92575309      -1.33794657       1.91433843       0.00000000
Si       2.50263128      -0.17187579      -2.82788386       0.00000000
Si      -0.21597282       2.54728359      -2.82568982       0.00000000
Si       2.53561508      -2.84780151      -0.04768619       0.00000000
Si      -2.82115107       2.58307272       0.14720670       0.00000000
