10
Lattice="16.28999089631971 0.0 0.0 0.0 16.28999089631971 0.0 0.0 0.0 34.281931910070035" Properties=species:S:1:pos:R:3:initial_magmoms:R:1 pbc="T T T"
Si       1.31417946       1.32629922      -1.40209752       0.00000000
Si      -2.27615283       0.26254593       0.47902170       0.00000000
Si       0.87848712       0.98885187       1.94673487       0.00000000
Si       0.61985079      -2.27823795      -0.12687750       0.00000000
Si       3.08366509       0.18748161       1.55832037       0.00000000
Si      -0.27000675      -0.35363961       3.46254562       0.00000000
Si       0.03090213       3.36220713      -1.01584277       0.00000000
Si       2.66714282      -2.09691396       1.06260336       0.00000000
Si      -3.33990612      -1.52834409      -0.60305380       0.00000000
Si      -2.49078987      -0.44588988       2.74797263       0.00000000
