10
Lattice="16.28999089631971 0.0 0.0 0.0 16.28999089631971 0.0 0.0 0.0 34.281931910070035" Properties=species:S:1:pos:R:3:initial_magmoms:R:1 pbc="T T T"
Si       2.18735604       0.99707832       0.11031932       0.00000000
Si      -1.83026295       0.68821992       1.43490534       0.00000000
Si      -0.26420751       0.81572175      -2.41749463       0.00000000
Si       1.25605674      -1.07217522      -2.50577065       0.00000000
Si       1.18237707      -2.55630825       1.46973581       0.00000000
Si       0.83018727       3.07190304       1.37810015       0.00000000
Si      -0.54560097       1.98751032       2.98407727       0.00000000
Si       2.05786683      -0.84782934       2.96771449       0.00000000
Si       1.85121189      -2.97978309      -1.24878863       0.00000000
Si       3.06698346       0.47003166      -2.13240592       0.00000000
