10
Lattice="16.28999089631971 0.0 0.0 0.0 16.28999089631971 0.0 0.0 0.0 34.281931910070035" Properties=species:S:1:pos:R:3:initial_magmoms:R:1 pbc="T T T"
Si       1.35881327       1.35321030      -1.39685238       0.00000000
Si      -1.35886293      -1.36112724      -1.39901214       0.00000000
Si       1.50715294      -1.31217579       1.32935122       0.00000000
Si      -1.35475785       1.39931982       1.66545146       0.00000000
Si       2.39337471       0.59017041       2.71159948       0.00000000
Si      -2.70244584      -2.70962973      -0.01241007       0.00000000
Si      -2.72044629       2.70049660      -0.00387386       0.00000000
Si       2.70158803       2.72652639      -0.02492298       0.00000000
Si       2.73894100      -2.72890080      -0.03812153       0.00000000
Si       0.00211770       2.70884848      -2.76027985       0.00000000
