10
Lattice="16.28999089631971 0.0 0.0 0.0 16.28999089631971 0.0 0.0 0.0 34.281931910070035" Properties=species:S:1:pos:R:3:initial_magmoms:R:1 pbc="T T T"
Si       1.28734983       1.39710438      -1.49829267       0.00000000
Si       0.46591029      -0.63858429       2.32531046       0.00000000
Si      -1.32193350      -1.32755355      -1.58985976       0.00000000
Si       0.17363511       1.57707792       3.07467963       0.00000000
Si      -2.76022647      -2.52325584      -0.11151919       0.00000000
Si       2.03190057       3.24774449      -0.09047007       0.00000000
Si       2.64210768      -0.00221544      -3.16374414       0.00000000
Si      -1.61334531       2.99612915       2.33076129       0.00000000
Si      -0.07833861       2.69828116      -3.16761800       0.00000000
Si      -0.06033816      -2.71184517      -3.17615420       0.00000000
