10
Lattice="16.28999089631971 0.0 0.0 0.0 16.28999089631971 0.0 0.0 0.0 34.281931910070035" Properties=species:S:1:pos:R:3:initial_magmoms:R:1 pbc="T T T"
Si      -0.28413018       0.29993378       2.31423739       0.00000000
Si       2.20764428       0.68895201      -0.45564141       0.00000000
Si      -0.85600692      -2.08215522      -0.74240993       0.00000000
Si      -1.62539991       1.36204830      -1.18865809       0.00000000
Si      -0.72355293       2.55253616       2.32579041       0.00000000
Si      -1.98612567       3.07658546       0.41755416       0.00000000
Si      -3.63561849       0.30743532      -0.58001633       0.00000000
Si       3.53769020      -0.43978113       1.28248779       0.00000000
Si       0.35869018      -2.64002256      -2.73282001       0.00000000
Si       2.96716553      -0.47444625      -2.35900962       0.00000000
