10
Lattice="16.28999089631971 0.0 0.0 0.0 16.28999089631971 0.0 0.0 0.0 34.281931910070035" Properties=species:S:1:pos:R:3:initial_magmoms:R:1 pbc="T T T"
Si       1.68692724       1.26997070      -0.89397044       0.00000000
Si      -1.70149050       0.95397498      -1.45883415       0.00000000
Si       1.28327733      -2.03590791      -0.38625474       0.00000000
Si      -1.85518665       0.70876161       2.37330519       0.00000000
Si       0.27935721      -0.01871721       3.13652427       0.00000000
Si      -3.13121493      -0.91632879       1.19842845       0.00000000
Si      -3.21530391      -0.76945815      -1.14237746       0.00000000
Si      -0.03090213      -3.36220713       1.01584277       0.00000000
Si       3.38934694       1.21996854       0.68886152       0.00000000
Si      -1.75767471       2.94439211       1.59743607       0.00000000
