10
Lattice="16.28999089631971 0.0 0.0 0.0 16.28999089631971 0.0 0.0 0.0 34.281931910070035" Properties=species:S:1:pos:R:3:initial_magmoms:R:1 pbc="T T T"
Si      -0.05028723      -1.04034456      -2.03219978       0.00000000
Si      -0.92649375       2.10417930       0.04837183       0.00000000
Si       2.20897287       0.34309998       0.67833697       0.00000000
Si      -1.29129201      -1.45935594       1.38344814       0.00000000
Si       2.03989896      -1.80504603       1.66853684       0.00000000
Si       1.72514358       1.92195936       2.42345968       0.00000000
Si      -0.55799766       2.67059889       2.27488171       0.00000000
Si       0.22897224      -3.34725291       1.29517211       0.00000000
Si       1.09820664       0.30214692      -3.54801053       0.00000000
Si      -2.27107035      -1.13259483      -2.74677277       0.00000000
