10
Lattice="16.28999089631971 0.0 0.0 0.0 16.28999089631971 0.0 0.0 0.0 34.281931910070035" Properties=species:S:1:pos:R:3:initial_magmoms:R:1 pbc="T T T"
Si      -2.20897287      -0.34309998      -0.67833697       0.00000000
Si      -0.16907391      -2.14814601       0.99019987       0.00000000
Si       1.92323717       0.64912392      -1.27689983       0.00000000
Si      -0.48382929       1.57885938       1.74512272       0.00000000
Si      -3.13546662       1.76107932      -0.62996513       0.00000000
Si      -1.04870133      -1.62109935       3.23292511       0.00000000
Si      -2.25926010      -1.38344454      -2.71053674       0.00000000
Si       3.72688226       0.68354469       0.31954207       0.00000000
Si       1.80596546      -3.33308061       0.79266727       0.00000000
Si       2.60197631      -0.95957874      -2.79908702       0.00000000
