10
Lattice="16.28999089631971 0.0 0.0 0.0 16.28999089631971 0.0 0.0 0.0 34.281931910070035" Properties=species:S:1:pos:R:3:initial_magmoms:R:1 pbc="T T T"
Si       2.18054682       0.69633234      -0.50672152       0.00000000
Si      -1.22583879       0.33099651      -1.97546315       0.00000000
Si       0.38323854      -2.32526718      -0.05132008       0.00000000
Si      -0.78574163       1.19853675       1.94464367       0.00000000
Si       3.47695389      -0.27733725       1.17347119       0.00000000
Si      -1.27621887       2.68411959      -2.22225891       0.00000000
Si       2.35437741      -2.55355524      -1.36490160       0.00000000
Si      -3.48440561      -0.17915742      -1.40014345       0.00000000
Si      -1.57907848      -3.27137409      -1.01018625       0.00000000
Si      -0.11578932       3.47547150       1.54543035       0.00000000
