10
Lattice="16.28999089631971 0.0 0.0 0.0 16.28999089631971 0.0 0.0 0.0 34.281931910070035" Properties=species:S:1:pos:R:3:initial_magmoms:R:1 pbc="T T T"
Si       1.51341593      -0.55413693       1.76610327       0.00000000
Si       0.66995231       2.27693475      -0.39921332       0.00000000
Si       0.78574163      -1.19853675      -1.94464367       0.00000000
Si      -2.52085862       0.01205460       0.68193657       0.00000000
Si       0.96628370      -3.01089699       1.92709132       0.00000000
Si      -3.11601377       1.91966247      -0.57504545       0.00000000
Si      -1.30508705       3.46186935      -0.20168072       0.00000000
Si      -2.88423965      -2.41075710       0.12704891       0.00000000
Si       1.21534151       1.36340784       3.40296359       0.00000000
Si       2.96628845      -0.50220441      -2.45136519       0.00000000
