10
Lattice="16.28999089631971 0.0 0.0 0.0 16.28999089631971 0.0 0.0 0.0 34.281931910070035" Properties=species:S:1:pos:R:3:initial_magmoms:R:1 pbc="T T T"
Si      -1.35697808      -1.35783666       1.35633111       0.00000000
Si      -1.35736904       1.35702216      -1.35742813       0.00000000
Si       1.35687631      -1.35723393      -1.35814806       0.00000000
Si       1.35864541       1.35879777       1.35684534       0.00000000
Si      -0.00046091       2.71430496      -2.71369068       0.00000000
Si      -0.00150993      -2.71257822      -2.71547334       0.00000000
Si       2.71385123       0.00011403       2.71434204       0.00000000
Si       2.71445396      -2.71448415      -0.00017141       0.00000000
Si       2.71445396       2.71464705       0.00023997       0.00000000
Si      -0.00086958       2.71314837       2.71602186       0.00000000
