10
Lattice="16.28999089631971 0.0 0.0 0.0 16.28999089631971 0.0 0.0 0.0 34.281931910070035" Properties=species:S:1:pos:R:3:initial_magmoms:R:1 pbc="T T T"
Si       1.35580856       1.35584928      -1.35660537       0.00000000
Si       1.35520582      -1.35868374       1.35749670       0.00000000
Si      -1.35951499       1.35435060       1.35917651       0.00000000
Si      -1.35864541      -1.35879777      -1.35684534       0.00000000
Si       0.01036533      -2.70286938       2.72428381       0.00000000
Si       2.71276555      -0.00128691      -2.71465058       0.00000000
Si      -0.00167950       2.71318095      -2.71434204       0.00000000
Si       0.01968484       2.70573642       2.72226117       0.00000000
Si       2.71413391       2.71529865       0.00140556       0.00000000
Si       2.71424795      -2.71526607      -0.00119987       0.00000000
