10
Lattice="16.28999089631971 0.0 0.0 0.0 16.28999089631971 0.0 0.0 0.0 34.281931910070035" Properties=species:S:1:pos:R:3:initial_magmoms:R:1 pbc="T T T"
Si      -1.03558301      -1.78600302       1.15345053       0.00000000
Si      -1.39052582       1.32118416      -1.40734266       0.00000000
Si       1.33689652      -1.38129426      -1.41509038       0.00000000
Si       0.39013801       1.50985494       1.96202462       0.00000000
Si      -2.35349288      -0.22116933       2.47477977       0.00000000
Si       2.60056394      -2.75428062       0.02673992       0.00000000
Si      -2.53561508       2.84780151       0.04768619       0.00000000
Si       2.70105695       2.73948930       0.05680519       0.00000000
Si      -0.03298380       2.67592572      -2.78019767       0.00000000
Si       2.68173701      -0.03710862      -2.78187748       0.00000000
