10
Lattice="16.28999089631971 0.0 0.0 0.0 16.28999089631971 0.0 0.0 0.0 34.281931910070035" Properties=species:S:1:pos:R:3:initial_magmoms:R:1 pbc="T T T"
Si      -1.35484093       1.28782224      -1.47391820       0.00000000
Si       1.24193331       1.65866409       1.26548394       0.00000000
Si       1.33970589      -1.40675553      -1.45691436       0.00000000
Si      -2.31091895      -1.22963436       1.90521943       0.00000000
Si      -2.58662899       2.70454725      -0.10644546       0.00000000
Si      -3.41761661       0.90593577       1.32033506       0.00000000
Si       2.67509493      -2.72337849       0.02128909       0.00000000
Si      -2.70105695      -2.73948930      -0.05680519       0.00000000
Si      -0.01865205       2.65031784      -2.83782563       0.00000000
Si      -0.19433970       2.51028900       2.96192629       0.00000000
