10
Lattice="16.28999089631971 0.0 0.0 0.0 16.28999089631971 0.0 0.0 0.0 34.281931910070035" Properties=species:S:1:pos:R:3:initial_magmoms:R:1 pbc="T T T"
Si      -1.44006206       0.80819577       1.60329829       0.00000000
Si       0.45012528       1.92870342      -1.23583005       0.00000000
Si       2.00898054      -0.69550155       0.97988101       0.00000000
Si      -1.26916042      -1.51356906      -1.29105828       0.00000000
Si      -3.48735410       0.62687178       0.41381743       0.00000000
Si       2.73670371       1.57863132      -1.75523589       0.00000000
Si       3.54261888      -0.39325689      -0.76788142       0.00000000
Si      -3.31235063      -0.39679182      -1.74227732       0.00000000
Si      -1.66823121      -3.42689472       0.00857049       0.00000000
Si       1.81908801      -2.97603639       1.56356551       0.00000000
