10
Lattice="16.28999089631971 0.0 0.0 0.0 16.28999089631971 0.0 0.0 0.0 34.281931910070035" Properties=species:S:1:pos:R:3:initial_magmoms:R:1 pbc="T T T"
Si       1.35867722       1.35604476      -1.35633111       0.00000000
Si      -1.35742682      -1.35767376      -1.35619398       0.00000000
Si       1.35748805      -1.35733167       1.35773667       0.00000000
Si      -1.35738250       1.35770634       1.35753098       0.00000000
Si      -0.00337855      -2.71551042      -2.71135951       0.00000000
Si       0.00167950      -2.71318095       2.71434204       0.00000000
Si       2.71444505      -2.71446786      -0.00030854       0.00000000
Si      -2.71433495      -2.71495656       0.00006856       0.00000000
Si      -2.71405802       0.00092853       2.71598757       0.00000000
Si      -2.71483994       2.71538010      -0.00020569       0.00000000
