10
Lattice="16.28999089631971 0.0 0.0 0.0 16.28999089631971 0.0 0.0 0.0 34.281931910070035" Properties=species:S:1:pos:R:3:initial_magmoms:R:1 pbc="T T T"
Si       1.01100627       1.87119387       0.95026140       0.00000000
Si       1.39952277      -1.78530255      -0.55673889       0.00000000
Si      -0.63573354      -0.96853824       2.11889883       0.00000000
Si      -1.33004592       1.12873314      -1.73812920       0.00000000
Si      -2.11940068       0.68971275       2.61458156       0.00000000
Si      -0.93092463       2.69162018       2.18146339       0.00000000
Si       2.41026840       1.00920527       2.57714567       0.00000000
Si      -0.57052467      -0.03466512      -3.64149741       0.00000000
Si       0.05880690      -3.30232509      -1.75557871       0.00000000
Si       2.63288754      -1.10872998      -2.47968208       0.00000000
