10
Lattice="16.28999089631971 0.0 0.0 0.0 16.28999089631971 0.0 0.0 0.0 34.51877397758722" Properties=species:S:1:pos:R:3:initial_magmoms:R:1 pbc="T T T"
Si       1.52634042      -1.10427141      -1.46704871       0.00000000
Si       1.59962913       1.44109485       1.14091516       0.00000000
Si      -1.33141917       1.60262649      -1.51672126       0.00000000
Si      -0.15185538      -1.89437550       2.16173943       0.00000000
Si       3.34415781      -1.82030650       0.01777718       0.00000000
Si      -2.44256237      -0.00547344      -2.92905768       0.00000000
Si      -3.01655681       2.03745546       1.46301002       0.00000000
Si       1.06073964       1.47160602       3.50645354       0.00000000
Si       0.47869794      -2.64707206      -2.91852945       0.00000000
Si       0.22452507       2.63026485      -3.00161619       0.00000000
