10
Lattice="16.28999089631971 0.0 0.0 0.0 16.28999089631971 0.0 0.0 0.0 34.51877397758722" Properties=species:S:1:pos:R:3:initial_magmoms:R:1 pbc="T T T"
Si       1.35638685      -1.35657323       1.35565657       0.00000000
Si      -1.35733167      -1.35710031      -1.35634694       0.00000000
Si       1.35692442       1.35834165      -1.35627791       0.00000000
Si      -1.35508365       1.35876519       1.36321618       0.00000000
Si       2.70278793       0.00075423       2.70351189       0.00000000
Si      -0.00052128      -2.71367684      -2.71369493       0.00000000
Si       2.71492398      -2.71273202      -0.00124268       0.00000000
Si       2.71423980       0.00103767      -2.71348782       0.00000000
Si      -2.71558047       0.00123152      -2.71393656       0.00000000
Si      -2.71541594      -2.71426328       0.00024163       0.00000000
