10
Lattice="16.28999089631971 0.0 0.0 0.0 16.28999089631971 0.0 0.0 0.0 34.51877397758722" Properties=species:S:1:pos:R:3:initial_magmoms:R:1 pbc="T T T"
Si       0.28838187       0.38966006       2.28745687       0.00000000
Si       2.02468410      -0.80160467      -0.87128886       0.00000000
Si      -1.87810668      -1.41519605      -0.15253855       0.00000000
Si      -0.58158558       2.04756015      -1.16518187       0.00000000
Si       3.32320887       0.84438075       0.29879467       0.00000000
Si       1.97558604       2.00176896       1.99083688       0.00000000
Si      -0.34205742       1.08724836      -3.28542971       0.00000000
Si      -3.34070433      -0.04475515       1.06797694       0.00000000
Si       1.64543661      -0.24572813      -3.17748944       0.00000000
Si      -1.98391023       0.82701561       2.88642697       0.00000000
