10
Lattice="16.28999089631971 0.0 0.0 0.0 16.28999089631971 0.0 0.0 0.0 34.51877397758722" Properties=species:S:1:pos:R:3:initial_magmoms:R:1 pbc="T T T"
Si      -1.35716877       1.35557235       1.36245677       0.00000000
Si       1.35790182      -1.35936792       1.36259485       0.00000000
Si      -1.35645201      -1.36510200      -1.38006826       0.00000000
Si       1.36018242       1.36119240      -1.39381364       0.00000000
Si       2.71173114      -2.71363707       0.00279602       0.00000000
Si       2.71441899       2.71218726      -0.00072489       0.00000000
Si      -2.71188915      -2.71837746       0.00300314       0.00000000
Si       0.00006516       2.71345788       2.71904535       0.00000000
Si      -2.71688855       2.71665072       0.00113912       0.00000000
Si       2.71507059      -0.00198738       2.71914890       0.00000000
