10
Lattice="16.28999089631971 0.0 0.0 0.0 16.28999089631971 0.0 0.0 0.0 34.51877397758722" Properties=species:S:1:pos:R:3:initial_magmoms:R:1 pbc="T T T"
Si      -1.35529542       1.35620766      -1.36276744       0.00000000
Si       1.37624436       1.33074639       1.37105195       0.00000000
Si       1.35907470      -1.36098063      -1.36207706       0.00000000
Si      -1.35340578      -1.36619343       1.37836993       0.00000000
Si       0.05509278       2.72130966       2.69429537       0.00000000
Si       2.71868697       2.70881523      -0.00238180       0.00000000
Si       2.71321353      -2.71456560      -0.00096653       0.00000000
Si      -2.71037907      -2.71762812       0.00017259       0.00000000
Si      -2.71647153       2.71163340       0.00062134       0.00000000
Si       0.00175932       2.71194291      -2.71935601       0.00000000
