10
Lattice="16.28999089631971 0.0 0.0 0.0 16.28999089631971 0.0 0.0 0.0 34.51877397758722" Properties=species:S:1:pos:R:3:initial_magmoms:R:1 pbc="T T T"
Si       0.41471082      -0.80756046      -2.14927814       0.00000000
Si       2.12252184       0.98797221       0.17901446       0.00000000
Si      -1.84647150       1.25724591      -0.74878166       0.00000000
Si       0.08097759      -1.93411170       1.35044423       0.00000000
Si       3.23636688      -1.09002906       0.68833926       0.00000000
Si       1.08675477      -0.88430265       3.25222263       0.00000000
Si       0.94174119       1.29902976      -3.15708883       0.00000000
Si      -1.57946211      -1.89905562      -2.57603399       0.00000000
Si       1.54005660       2.83664286       1.57650781       0.00000000
Si      -0.83750148       2.56645692      -2.43505923       0.00000000
