10
Lattice="16.28999089631971 0.0 0.0 0.0 16.28999089631971 0.0 0.0 0.0 34.51877397758722" Properties=species:S:1:pos:R:3:initial_magmoms:R:1 pbc="T T T"
Si       1.35557235       1.35482301       1.39687201       0.00000000
Si      -1.35967743      -1.35861858       1.39604356       0.00000000
Si       1.46341215      -1.43716896      -1.38315769       0.00000000
Si      -1.31971806       1.43896086      -1.59277997       0.00000000
Si      -2.71391400      -2.70961344       0.00295481       0.00000000
Si      -2.69755884       2.73008997       0.01557488       0.00000000
Si       2.71730232       2.71753038       0.01375229       0.00000000
Si       2.71388142       0.00009774       2.75908715       0.00000000
Si      -2.71479366       0.00019548       2.75822418       0.00000000
Si      -0.00078192      -2.71507059       2.75856936       0.00000000
