10
Lattice="16.28999089631971 0.0 0.0 0.0 16.28999089631971 0.0 0.0 0.0 34.51877397758722" Properties=species:S:1:pos:R:3:initial_magmoms:R:1 pbc="T T T"
Si       1.40844969      -1.29422421       1.34188357       0.00000000
Si       1.35299853       1.34557029      -1.35997142       0.00000000
Si      -1.36151820      -1.36879983      -1.35707184       0.00000000
Si      -1.24548453       1.47813831       1.39659586       0.00000000
Si      -0.33142005      -2.38832577       2.62239272       0.00000000
Si       2.70629028       2.70888039       0.00959622       0.00000000
Si      -2.70868491       2.71075374       0.00721443       0.00000000
Si       0.00016290       2.70228294      -2.71973572       0.00000000
Si       2.71393029      -0.01327635      -2.71573154       0.00000000
Si      -2.71489140      -0.01306458      -2.71731941       0.00000000
