10
Lattice="16.28999089631971 0.0 0.0 0.0 16.28999089631971 0.0 0.0 0.0 34.51877397758722" Properties=species:S:1:pos:R:3:initial_magmoms:R:1 pbc="T T T"
Si       0.39493476       2.31821361       0.08836811       0.00000000
Si      -0.11699478      -0.63732996       2.28227905       0.00000000
Si      -2.08314891      -0.19227087      -1.22362218       0.00000000
Si       1.47854556       2.25844560      -2.12276771       0.00000000
Si       1.55463615       2.59597440       2.12528758       0.00000000
Si      -0.04927725       1.42641756       3.48387825       0.00000000
Si      -2.27509398      -1.35938421       2.78017813       0.00000000
Si       1.64639772      -2.26605303       2.64779856       0.00000000
Si       2.47249620       0.27443763      -3.01397392       0.00000000
Si      -3.93861249       0.71700435       0.04991418       0.00000000
