10
Lattice="16.28999089631971 0.0 0.0 0.0 16.28999089631971 0.0 0.0 0.0 34.51877397758722" Properties=species:S:1:pos:R:3:initial_magmoms:R:1 pbc="T T T"
Si       1.35337320      -1.35573525       1.36024757       0.00000000
Si       1.35672894       1.35708732      -1.35758962       0.00000000
Si      -1.35812988      -1.35822762      -1.35672665       0.00000000
Si      -1.36233270       1.35816246       1.35838355       0.00000000
Si      -2.69386753      -0.00882918       2.73136855       0.00000000
Si      -2.71528562       2.71381626      -0.00093201       0.00000000
Si      -0.00039096       2.71440270      -2.71486857       0.00000000
Si       2.71459818      -2.71484253       0.00089749       0.00000000
Si       2.71448415      -0.00081450      -2.71528280       0.00000000
Si       2.71505430       2.71534752      -0.00241632       0.00000000
