10
Lattice="16.28999089631971 0.0 0.0 0.0 16.28999089631971 0.0 0.0 0.0 34.51877397758722" Properties=species:S:1:pos:R:3:initial_magmoms:R:1 pbc="T T T"
Si      -1.56051684      -0.99038313       1.41744521       0.00000000
Si      -1.46320038       1.23261543      -1.38938143       0.00000000
Si       1.24548453      -1.47813831      -1.39659586       0.00000000
Si       1.19004966       1.68668289       1.40491489       0.00000000
Si      -3.09500226       0.91738764       1.89711836       0.00000000
Si      -0.11288970       2.58030342      -2.75943233       0.00000000
Si       2.59848306      -0.13256802      -2.75656727       0.00000000
Si      -2.77285122       2.59893415       0.07248947       0.00000000
Si       2.64774402       2.73370621      -0.05674890       0.00000000
Si       2.65393422      -2.77236252      -0.05471229       0.00000000
