10
Lattice="16.28999089631971 0.0 0.0 0.0 16.28999089631971 0.0 0.0 0.0 34.51877397758722" Properties=species:S:1:pos:R:3:initial_magmoms:R:1 pbc="T T T"
Si      -1.25757171       1.43012842       1.37070331       0.00000000
Si       1.44528138      -1.30200498       1.34082729       0.00000000
Si      -1.72248831      -0.87563963      -1.38880984       0.00000000
Si       1.44668232       1.30824664      -1.37745315       0.00000000
Si      -0.45862866      -1.77443127      -3.17139484       0.00000000
Si       0.00042354       2.44796020      -2.82451549       0.00000000
Si      -2.61772155       0.07043144       2.71735392       0.00000000
Si       0.09391185      -2.64200409       2.71849305       0.00000000
Si      -2.63042775       2.75066098       0.05949659       0.00000000
Si       2.70989037       2.73977926       0.03691440       0.00000000
