10
Lattice="16.28999089631971 0.0 0.0 0.0 16.28999089631971 0.0 0.0 0.0 34.51877397758722" Properties=species:S:1:pos:R:3:initial_magmoms:R:1 pbc="T T T"
Si      -1.37285604       1.32053256      -1.31120672       0.00000000
Si       1.34770428       1.35907470       1.35103450       0.00000000
Si       1.25757171      -1.43012842      -1.37070331       0.00000000
Si      -1.36014984      -1.35969698       1.34665061       0.00000000
Si      -0.46491660      -2.30576805      -2.75951315       0.00000000
Si      -2.33173431      -0.28197990      -2.78636877       0.00000000
Si      -0.01811448       2.55182850      -2.81798798       0.00000000
Si       2.70611109       0.00058644       2.70741596       0.00000000
Si      -0.00837306       2.71342530       2.70834797       0.00000000
Si      -0.00790065      -2.71470311       2.70762308       0.00000000
