10
Lattice="16.28999089631971 0.0 0.0 0.0 16.28999089631971 0.0 0.0 0.0 34.51877397758722" Properties=species:S:1:pos:R:3:initial_magmoms:R:1 pbc="T T T"
Si       2.26027008       0.42158520       0.25015769       0.00000000
Si      -0.91412964       2.13589593      -0.27390662       0.00000000
Si      -0.44924562      -1.47696543       1.77581932       0.00000000
Si      -0.12398319      -1.28824578      -2.04099269       0.00000000
Si       2.87461485      -1.82858345       0.03141210       0.00000000
Si      -0.30377592       2.42707968      -2.51158740       0.00000000
Si       1.79693361      -2.26490947       2.13257105       0.00000000
Si      -3.10655187       1.78313598       0.41822970       0.00000000
Si       0.61066323       0.47910519      -3.53772757       0.00000000
Si      -1.74777039      -3.12295085       0.60573578       0.00000000
