10
Lattice="16.28999089631971 0.0 0.0 0.0 16.28999089631971 0.0 0.0 0.0 34.51877397758722" Properties=species:S:1:pos:R:3:initial_magmoms:R:1 pbc="T T T"
Si      -1.35742941      -1.35718506      -1.35752058       0.00000000
Si       1.35723393       1.35798327      -1.35700280       0.00000000
Si       1.35711990      -1.35738054       1.35803836       0.00000000
Si      -1.35780408       1.35760860       1.35734799       0.00000000
Si       2.71432125      -2.71463076      -0.00003452       0.00000000
Si       0.00057015      -2.71495656      -2.71421271       0.00000000
Si       2.71502172       2.71438641       0.00003452       0.00000000
Si       0.00073305      -2.71505430       2.71438531       0.00000000
Si       2.71523349       0.00201996      -2.71500665       0.00000000
Si       2.71551042       0.00024435       2.71490309       0.00000000
