10
Lattice="16.28999089631971 0.0 0.0 0.0 16.28999089631971 0.0 0.0 0.0 34.51877397758722" Properties=species:S:1:pos:R:3:initial_magmoms:R:1 pbc="T T T"
Si      -1.35775521      -1.35635427       1.35859067       0.00000000
Si       1.35780408      -1.35760860      -1.35734799       0.00000000
Si      -1.35786924       1.35767376      -1.35758962       0.00000000
Si       1.35646830       1.35827649       1.35928104       0.00000000
Si      -2.71363707       0.00047241      -2.71521376       0.00000000
Si       2.71503801       0.00037467      -2.71435079       0.00000000
Si       0.00037467      -2.71479366      -2.71486857       0.00000000
Si       2.71500543       2.71484253      -0.00027615       0.00000000
Si       2.71492398      -2.71498914       0.00069038       0.00000000
Si      -2.71516833      -2.71508688       0.00020711       0.00000000
