10
Lattice="16.28999089631971 0.0 0.0 0.0 16.28999089631971 0.0 0.0 0.0 34.51877397758722" Properties=species:S:1:pos:R:3:initial_magmoms:R:1 pbc="T T T"
Si       1.35778779       1.35640314       1.35703732       0.00000000
Si       1.35799956      -1.35596331      -1.35800385       0.00000000
Si      -1.35723393      -1.35798327       1.35700280       0.00000000
Si      -1.35830907       1.35472527      -1.36221514       0.00000000
Si      -0.00003258       2.71446786       2.71407464       0.00000000
Si       2.71490769       2.71446786      -0.00065586       0.00000000
Si      -2.71503801      -0.00037467       2.71435079       0.00000000
Si       2.71518462      -0.00055386       2.71445435       0.00000000
Si      -2.71466334      -2.71516833      -0.00051778       0.00000000
Si       2.71441899      -2.71552671      -0.00041423       0.00000000
