10
Lattice="16.28999089631971 0.0 0.0 0.0 16.28999089631971 0.0 0.0 0.0 34.51877397758722" Properties=species:S:1:pos:R:3:initial_magmoms:R:1 pbc="T T T"
Si      -1.36220238      -1.35290079      -1.36432079       0.00000000
Si       1.35345465       1.36441782      -1.36563250       0.00000000
Si      -1.31297400       1.44264240       1.33539404       0.00000000
Si       1.22207580      -1.30222260       1.64906631       0.00000000
Si       0.60013989       0.64366677       3.29695898       0.00000000
Si       2.69399133      -2.69754255       0.01259936       0.00000000
Si       2.68609068       2.73761595       0.00414226       0.00000000
Si      -0.00542457      -2.70734913      -2.72446480       0.00000000
Si       2.70935280       0.00794952      -2.72394701       0.00000000
Si      -2.70464499      -2.73096963       0.00911296       0.00000000
