10
Lattice="16.28999089631971 0.0 0.0 0.0 16.28999089631971 0.0 0.0 0.0 34.51877397758722" Properties=species:S:1:pos:R:3:initial_magmoms:R:1 pbc="T T T"
Si      -0.21758553       0.84950721       2.19929588       0.00000000
Si       1.71795969       1.01291220      -1.30739930       0.00000000
Si       0.18344169      -2.37936627      -0.30079676       0.00000000
Si       0.25319547      -0.17352108      -3.16133464       0.00000000
Si      -3.46700070      -0.05771547       0.81757762       0.00000000
Si       1.93231980       0.36413037       3.03302829       0.00000000
Si      -2.22707106      -0.31809483       2.84721363       0.00000000
Si       0.07371225      -2.51212977      -2.68825458       0.00000000
Si      -1.68720417       3.42604764      -0.02250625       0.00000000
Si       2.31510222      -3.06382320       0.68381729       0.00000000
