10
Lattice="16.28999089631971 0.0 0.0 0.0 16.28999089631971 0.0 0.0 0.0 34.51877397758722" Properties=species:S:1:pos:R:3:initial_magmoms:R:1 pbc="T T T"
Si      -2.25407988      -0.27482859       0.56452035       0.00000000
Si       0.52268094      -1.80141336      -1.43252992       0.00000000
Si       0.03088584       2.20722984      -0.84740186       0.00000000
Si       1.57806117      -0.93375909       1.57947642       0.00000000
Si      -1.73156184      -1.22357448       2.68908303       0.00000000
Si       2.21283360      -2.67069663       0.10390157       0.00000000
Si      -0.94074750       1.96582833      -2.97617584       0.00000000
Si      -1.48450770       3.38947659       0.62893241       0.00000000
Si       2.61369792       0.93880899       2.54493255       0.00000000
Si       2.29249170       2.86247880      -1.08475308       0.00000000
