10
Lattice="16.28999089631971 0.0 0.0 0.0 16.28999089631971 0.0 0.0 0.0 34.51877397758722" Properties=species:S:1:pos:R:3:initial_magmoms:R:1 pbc="T T T"
Si      -1.35672894      -1.35479043      -1.35772770       0.00000000
Si       1.35741312       1.35770634      -1.35710636       0.00000000
Si      -1.35775521       1.35787741       1.35676117       0.00000000
Si       1.35778779      -1.35782037       1.35686473       0.00000000
Si      -2.71451673       0.00117288       2.71241774       0.00000000
Si       2.71249677      -0.00100998       2.71452338       0.00000000
Si      -0.00079821       2.71275645       2.71531732       0.00000000
Si      -2.71655298      -0.00175932      -2.71262485       0.00000000
Si       2.71466334       2.71497841       0.00006904       0.00000000
Si      -2.71508688      -2.71498914      -0.00044874       0.00000000
