10
Lattice="16.28999089631971 0.0 0.0 0.0 16.28999089631971 0.0 0.0 0.0 34.51877397758722" Properties=species:S:1:pos:R:3:initial_magmoms:R:1 pbc="T T T"
Si       1.85999220       1.15751853      -0.81750858       0.00000000
Si      -0.66523473       1.06388361       1.97371556       0.00000000
Si      -1.50944769       0.28911492      -1.77664777       0.00000000
Si       0.11060910      -2.27695104       0.60059248       0.00000000
Si      -0.04965192      -0.63107460      -3.44269733       0.00000000
Si       1.73436372       0.90186327      -3.17155221       0.00000000
Si      -2.15099676      -2.93220000       0.83794371       0.00000000
Si       0.89210556      -2.32093404       2.83955045       0.00000000
Si      -0.38527479      -0.53594100       3.73244808       0.00000000
Si      -1.87178616       2.64888027      -2.19239212       0.00000000
