10
Lattice="16.28999089631971 0.0 0.0 0.0 16.28999089631971 0.0 0.0 0.0 34.51877397758722" Properties=species:S:1:pos:R:3:initial_magmoms:R:1 pbc="T T T"
Si       0.88220124       1.54228833       1.61622310       0.00000000
Si      -0.78739344       0.60281145      -2.23205421       0.00000000
Si      -1.70256564      -1.00071099       1.49359509       0.00000000
Si       1.85080464      -1.53453429      -1.18941406       0.00000000
Si      -1.22671845       2.87770995      -1.31381979       0.00000000
Si      -2.93558832      -0.68976747      -2.15745910       0.00000000
Si       3.02216967       0.27463311      -2.27433973       0.00000000
Si       2.33445474       0.27785853       3.10012734       0.00000000
Si       1.87361064       3.39935552       0.37842953       0.00000000
Si      -0.38284758      -2.43967185       3.08637505       0.00000000
