10
Lattice="16.28999089631971 0.0 0.0 0.0 16.28999089631971 0.0 0.0 0.0 34.51877397758722" Properties=species:S:1:pos:R:3:initial_magmoms:R:1 pbc="T T T"
Si      -1.26385965       0.89879165       1.78258500       0.00000000
Si      -1.04712120       0.55262344      -2.04713703       0.00000000
Si      -0.11530062      -2.22593076      -0.87018426       0.00000000
Si      -0.79674390       2.70250190      -1.04039643       0.00000000
Si       2.20757193      -2.36780037      -0.95603250       0.00000000
Si       0.45862866       1.77443127       3.17139484       0.00000000
Si       0.54315747       0.38972196      -3.79358086       0.00000000
Si      -2.25526905      -0.95827554       3.02037857       0.00000000
Si       2.56345956      -0.70455879      -3.02633164       0.00000000
Si       2.45027664      -2.76690537       1.63159980       0.00000000
