10
Lattice="16.28999089631971 0.0 0.0 0.0 16.28999089631971 0.0 0.0 0.0 34.51877397758722" Properties=species:S:1:pos:R:3:initial_magmoms:R:1 pbc="T T T"
Si      -1.27229787       1.42376229       1.31910462       0.00000000
Si       1.45313316      -1.31067711       1.32061654       0.00000000
Si      -1.26320805      -1.43153262      -1.41436755       0.00000000
Si       1.22562702       1.53310077      -1.53570111       0.00000000
Si       2.01748133      -0.38608929      -2.65480039       0.00000000
Si       0.48760857      -2.30718528      -2.77613395       0.00000000
Si      -2.61975780       0.04942386       2.68482341       0.00000000
Si       0.09938529      -2.66667463       2.68023241       0.00000000
Si       0.09550827       2.76195321       2.68030145       0.00000000
Si      -2.58641217       2.85187401      -0.16336709       0.00000000
