10
Lattice="16.28999089631971 0.0 0.0 0.0 16.28999089631971 0.0 0.0 0.0 34.51877397758722" Properties=species:S:1:pos:R:3:initial_magmoms:R:1 pbc="T T T"
Si       1.35643572       1.35720266       1.35786577       0.00000000
Si      -1.35778779       1.35778096      -1.35700280       0.00000000
Si       1.35804843      -1.35745809      -1.35748606       0.00000000
Si      -1.35995436      -1.35820743       1.35745155       0.00000000
Si      -2.71300176       0.00077558       2.71521376       0.00000000
Si      -2.71503801       0.00050889      -2.71417820       0.00000000
Si      -2.71466334      -2.71501782      -0.00020711       0.00000000
Si       0.00027693      -2.71501782      -2.71493761       0.00000000
Si      -0.00102627       2.71579844      -2.71438531       0.00000000
Si      -2.71515204       2.71511426      -0.00010356       0.00000000
