10
Lattice="16.28999089631971 0.0 0.0 0.0 16.28999089631971 0.0 0.0 0.0 34.51877397758722" Properties=species:S:1:pos:R:3:initial_magmoms:R:1 pbc="T T T"
Si      -1.77402987       1.63749361      -0.14377077       0.00000000
Si       1.59159816       0.76025267      -1.71492817       0.00000000
Si       0.20833281      -1.94422846       1.52379761       0.00000000
Si       1.22456817       1.09715593       1.92863402       0.00000000
Si      -0.85750560      -1.70981536      -1.71734448       0.00000000
Si       2.06215110      -2.90164063       0.46065330       0.00000000
Si       1.32291090       3.11644642      -1.59573478       0.00000000
Si      -3.77706456       0.35866507       0.19675712       0.00000000
Si       1.02006351      -3.23864815      -1.70709240       0.00000000
Si      -1.65004668       2.92573939       1.89722192       0.00000000
