10
Lattice="16.28999089631971 0.0 0.0 0.0 16.28999089631971 0.0 0.0 0.0 34.51877397758722" Properties=species:S:1:pos:R:3:initial_magmoms:R:1 pbc="T T T"
Si       0.43069131       1.15647597       1.98576262       0.00000000
Si       1.31735601       1.34925183      -1.39663038       0.00000000
Si       0.26868726      -2.35619375      -0.11919339       0.00000000
Si      -2.36229435       0.28839816      -0.04477087       0.00000000
Si      -2.42457102       0.97021611      -2.33164093       0.00000000
Si      -0.40689162       2.33945577      -2.61403918       0.00000000
Si      -3.09694077      -1.47895281       1.45196400       0.00000000
Si       0.20352726       3.45691719       1.39438665       0.00000000
Si      -1.32291090      -3.11644642       1.59573478       0.00000000
Si      -0.02994102      -2.86445641      -2.44776215       0.00000000
