10
Lattice="16.28999089631971 0.0 0.0 0.0 16.28999089631971 0.0 0.0 0.0 34.51877397758722" Properties=species:S:1:pos:R:3:initial_magmoms:R:1 pbc="T T T"
Si      -1.35733167      -1.35708732       1.35738251       0.00000000
Si       1.35778779       1.35791811       1.35748606       0.00000000
Si      -1.35641943       1.35956340      -1.35758962       0.00000000
Si       1.35604476      -1.35816246      -1.36059276       0.00000000
Si      -2.69834076      -0.03023424      -2.70539316       0.00000000
Si      -0.01176138      -2.69635338      -2.72178959       0.00000000
Si       0.00040725      -2.71492398       2.71479953       0.00000000
Si       2.71449000       2.71526607       0.00100105       0.00000000
Si       0.00076563       2.71497285       2.71486857       0.00000000
Si      -2.71441899       2.71552671       0.00041423       0.00000000
