10
Lattice="16.28999089631971 0.0 0.0 0.0 16.28999089631971 0.0 0.0 0.0 34.51877397758722" Properties=species:S:1:pos:R:3:initial_magmoms:R:1 pbc="T T T"
Si      -1.35268902      -1.35167904      -1.38168374       0.00000000
Si       1.36223304       1.36269108      -1.38158018       0.00000000
Si      -1.53016857       1.26633573       1.37077580       0.00000000
Si       1.45693282      -1.29106395       1.56746388       0.00000000
Si       0.40109238       1.98304686       2.58124632       0.00000000
Si      -2.10450510      -0.61706520       2.58997958       0.00000000
Si       2.38864247       0.62125173       2.85477324       0.00000000
Si       2.71194195      -2.69840592      -0.00935459       0.00000000
Si      -2.72722293      -2.69939961      -0.00441841       0.00000000
Si       2.73859402       2.71311579      -0.00945815       0.00000000
