10
Lattice="16.28999089631971 0.0 0.0 0.0 16.28999089631971 0.0 0.0 0.0 34.51877397758722" Properties=species:S:1:pos:R:3:initial_magmoms:R:1 pbc="T T T"
Si       0.43746795      -0.82165131      -2.18300301       0.00000000
Si      -0.17948322      -2.33860869       0.47308006       0.00000000
Si       1.46476422       1.18643328       1.85393535       0.00000000
Si      -2.27910132       0.43722360      -1.49304137       0.00000000
Si       2.59129917      -1.46461761      -0.90850012       0.00000000
Si      -0.25319547       0.17352108       3.16133464       0.00000000
Si      -0.06975378      -2.20584519       2.86053788       0.00000000
Si       1.01180448       1.06174962      -3.40220678       0.00000000
Si      -1.65716541      -1.50866577      -3.14093404       0.00000000
Si       2.94306543       1.77846075      -2.19173626       0.00000000
