10
Lattice="16.28999089631971 0.0 0.0 0.0 16.28999089631971 0.0 0.0 0.0 34.51877397758722" Properties=species:S:1:pos:R:3:initial_magmoms:R:1 pbc="T T T"
Si      -1.71795969      -1.01291220       1.30739930       0.00000000
Si       0.09076788       2.40124374       0.48547231       0.00000000
Si       2.40375240      -0.51165261       0.27363047       0.00000000
Si      -1.46476422      -1.18643328      -1.85393535       0.00000000
Si      -1.53451800      -3.39227847       1.00660253       0.00000000
Si       1.13285547       2.73825126       2.65321801       0.00000000
Si       1.12653495      -2.65105089      -2.76243547       0.00000000
Si       3.63119968       0.69871068      -1.54675261       0.00000000
Si      -1.93554522      -0.16340499       3.50669517       0.00000000
Si       3.19344992      -2.47443471      -0.69213632       0.00000000
