10
Lattice="16.28999089631971 0.0 0.0 0.0 16.28999089631971 0.0 0.0 0.0 34.51877397758722" Properties=species:S:1:pos:R:3:initial_magmoms:R:1 pbc="T T T"
Si      -0.74846034      -1.81433133      -1.37888568       0.00000000
Si       1.48629180       1.33019253      -1.37035954       0.00000000
Si       1.42743953      -1.25613819       1.50577190       0.00000000
Si      -1.29482694       1.42500033       1.50173665       0.00000000
Si      -2.52568305      -2.61488709       0.09626601       0.00000000
Si       1.26944712      -3.34075320      -1.24467662       0.00000000
Si       2.94421943      -2.38988961       0.05855423       0.00000000
Si      -2.74010832       2.72700531       0.16090935       0.00000000
Si       0.06818994      -2.63539620       2.88005826       0.00000000
Si       2.74234724       2.77843284       0.11219643       0.00000000
