10
Lattice="16.28999089631971 0.0 0.0 0.0 16.28999089631971 0.0 0.0 0.0 34.51877397758722" Properties=species:S:1:pos:R:3:initial_magmoms:R:1 pbc="T T T"
Si      -2.10623184       0.57888144      -0.84992173       0.00000000
Si      -0.05725935      -0.61603893       2.29246210       0.00000000
Si       1.31049696       1.93696245      -0.41760836       0.00000000
Si       1.28701493      -1.67808177      -1.12030744       0.00000000
Si       3.45796694       1.16457210       0.01546442       0.00000000
Si       2.19171266      -0.86222970       2.89982027       0.00000000
Si      -2.29330620       2.92828455      -0.69797000       0.00000000
Si       3.49295786      -0.83530233      -1.32924969       0.00000000
Si       1.03355784       2.59378895      -2.64717722       0.00000000
Si       1.53196277      -3.57848946       0.22516609       0.00000000
