10
Lattice="16.28999089631971 0.0 0.0 0.0 16.28999089631971 0.0 0.0 0.0 34.51877397758722" Properties=species:S:1:pos:R:3:initial_magmoms:R:1 pbc="T T T"
Si       0.61532869       1.90560420      -1.30950494       0.00000000
Si       1.35308650      -1.81737756      -0.78682137       0.00000000
Si      -2.30599678      -0.71169381      -0.31905721       0.00000000
Si       1.76173744       0.10889865       1.71955369       0.00000000
Si      -1.25196862      -2.26484757       1.63753703       0.00000000
Si       0.27311814      -1.09172322       3.05874276       0.00000000
Si       2.89563547       1.47271374      -1.18444335       0.00000000
Si       2.45634304      -0.48097854      -2.41124127       0.00000000
Si       3.43019182      -0.95333967       0.17673622       0.00000000
Si      -2.01600220      -1.83941793      -2.48890855       0.00000000
