10
Lattice="16.28999089631971 0.0 0.0 0.0 16.28999089631971 0.0 0.0 0.0 34.51877397758722" Properties=species:S:1:pos:R:3:initial_magmoms:R:1 pbc="T T T"
Si       1.35684917       1.35746199       1.35703732       0.00000000
Si       1.35755779      -1.35702216      -1.35779673       0.00000000
Si      -1.35724957       1.35827649      -1.35769318       0.00000000
Si      -1.35852019      -1.35943308       1.35607079       0.00000000
Si      -0.00557262      -2.71050939       2.71517924       0.00000000
Si      -2.71200742       0.00037467       2.71642192       0.00000000
Si      -2.71463011      -2.71456560      -0.00037971       0.00000000
Si       2.71498068      -2.71437012      -0.00034519       0.00000000
Si      -2.71427173       2.71533123      -0.00031067       0.00000000
Si      -0.00054737       2.71562445      -2.71417820       0.00000000
