10
Lattice="16.28999089631971 0.0 0.0 0.0 16.28999089631971 0.0 0.0 0.0 34.51877397758722" Properties=species:S:1:pos:R:3:initial_magmoms:R:1 pbc="T T T"
Si      -1.35640343      -1.35777080      -1.35714088       0.00000000
Si       1.35803703       1.35748480      -1.35720991       0.00000000
Si      -1.35776315       1.35794092       1.35776221       0.00000000
Si       1.35824880      -1.35833183       1.35758962       0.00000000
Si      -2.71455161       2.71463728       0.00020711       0.00000000
Si       2.71558047      -0.00123152       2.71393656       0.00000000
Si       0.00297455       2.71328521      -2.71624932       0.00000000
Si       0.00016453      -2.71549480       2.71417820       0.00000000
Si       2.71484742       2.71501195      -0.00017259       0.00000000
Si      -2.71447016      -2.71539706      -0.00013808       0.00000000
