10
Lattice="16.28999089631971 0.0 0.0 0.0 16.28999089631971 0.0 0.0 0.0 34.51877397758722" Properties=species:S:1:pos:R:3:initial_magmoms:R:1 pbc="T T T"
Si      -1.35384895      -1.33928235      -1.37452799       0.00000000
Si       1.35792625      -1.35503478       1.35845259       0.00000000
Si      -1.35571600       1.35894575       1.35862518       0.00000000
Si       1.35874076       1.36466217      -1.37534264       0.00000000
Si       0.16293095      -2.47303377      -2.82174566       0.00000000
Si      -2.71212114       2.71696579      -0.00224372       0.00000000
Si      -2.71378272       0.00131949       2.71562799       0.00000000
Si       2.71540454      -2.71420722      -0.00424581       0.00000000
Si       0.00077703      -2.71383255       2.71580058       0.00000000
Si       2.71527421       2.71452229      -0.00148431       0.00000000
