10
Lattice="16.28999089631971 0.0 0.0 0.0 16.28999089631971 0.0 0.0 0.0 34.51877397758722" Properties=species:S:1:pos:R:3:initial_magmoms:R:1 pbc="T T T"
Si      -1.35295292       1.35565380      -1.35931556       0.00000000
Si      -1.33153483      -1.36699164       1.37298500       0.00000000
Si       1.36233270      -1.35816246      -1.35838355       0.00000000
Si       1.36853919       1.36565586       1.36615028       0.00000000
Si      -2.70795905       2.71165712       0.00341736       0.00000000
Si      -2.70789581      -2.71741635       0.00086297       0.00000000
Si      -2.71022785      -0.00193851      -2.71573154       0.00000000
Si       0.00513135       2.71281677      -2.71590414       0.00000000
Si       2.71570590      -2.71389771       0.00186401       0.00000000
Si       0.00420282      -2.71639008      -2.71511020       0.00000000
