10
Lattice="16.28999089631971 0.0 0.0 0.0 16.28999089631971 0.0 0.0 0.0 34.51877397758722" Properties=species:S:1:pos:R:3:initial_magmoms:R:1 pbc="T T T"
Si      -2.05088657      -1.10324025       0.68740725       0.00000000
Si       1.53448542      -1.90777077      -0.47967315       0.00000000
Si       0.89482599       0.52426107       2.27423618       0.00000000
Si       0.32215104       1.68154651      -1.82462889       0.00000000
Si      -2.50508339      -1.27707084      -1.80692075       0.00000000
Si       0.63594531      -1.82708640       2.88380355       0.00000000
Si       1.36979352       3.22434716      -0.37314816       0.00000000
Si       1.63180188       0.31522779      -3.28649979       0.00000000
Si       3.09500226      -0.91738764      -1.89711836       0.00000000
Si      -1.25287530      -3.04080543       1.80995841       0.00000000
