10
Lattice="16.2900001489832 0.0 0.0 0.0 16.2900001489832 0.0 0.0 0.0 29.29437231617968" Properties=species:S:1:pos:R:3:initial_magmoms:R:1 pbc="T T T"
Si      -1.36199062       1.35754345      -1.35090998       0.00000000
Si      -1.43099506      -1.32895450       1.34137466       0.00000000
Si       1.29854107       1.39457062       1.42184630       0.00000000
Si       1.34229601      -1.34139355      -1.46354098       0.00000000
Si       0.01228918      -2.66645474       2.62979974       0.00000000
Si      -2.69843852       2.67931406       0.11051595       0.00000000
Si       2.65253330       2.76403836       0.06045480       0.00000000
Si       2.60555294       0.17655102      -2.81953939       0.00000000
Si      -0.18886757      -2.68880788      -2.74363768       0.00000000
Si       2.72888453       0.07265340       2.73180275       0.00000000
