10
Lattice="16.2900001489832 0.0 0.0 0.0 16.2900001489832 0.0 0.0 0.0 29.29437231617968" Properties=species:S:1:pos:R:3:initial_magmoms:R:1 pbc="T T T"
H        0.79693939       0.93087577       0.89998171       0.00000000
Si      -1.14590377      -1.46323297       1.46345896       0.00000000
Si      -1.46658546       1.35909100      -1.26847562       0.00000000
Si       1.58122144      -1.41734404      -1.05436305       0.00000000
H       -0.40418748       1.31266450       2.90236923       0.00000000
Si       2.90884017      -1.58314366       1.09681059       0.00000000
Si       1.07312005      -2.25546455       2.50015750       0.00000000
Si      -3.02435256       0.03238452       2.08939181       0.00000000
Si       0.00578295       2.60970689      -2.60831232       0.00000000
Si      -2.60626319      -0.18700920      -2.65802487       0.00000000
