10
Lattice="16.2900001489832 0.0 0.0 0.0 16.2900001489832 0.0 0.0 0.0 29.29437231617968" Properties=species:S:1:pos:R:3:initial_magmoms:R:1 pbc="T T T"
Si       1.10341538       1.89970724       0.74999452       0.00000000
Si      -2.05374466       0.84672163      -0.87566738       0.00000000
Si       1.37640646      -0.43878744      -1.90779600       0.00000000
Si      -0.21940920      -1.84761182       2.32216489       0.00000000
Si      -2.13157829      -0.26959950       2.63242159       0.00000000
Si      -3.36899928      -0.39732939       0.56669963       0.00000000
Si      -0.36251685      -3.44364087      -0.58079023       0.00000000
Si       3.36641080       1.30403080       0.56435608       0.00000000
Si       0.32022964       0.94941379      -3.54801720       0.00000000
Si      -2.65106639      -2.61529436      -0.22638691       0.00000000
