10
Lattice="16.2900001489832 0.0 0.0 0.0 16.2900001489832 0.0 0.0 0.0 29.29437231617968" Properties=species:S:1:pos:R:3:initial_magmoms:R:1 pbc="T T T"
H       -0.69823828      -0.79676020      -1.07032116       0.00000000
Si       1.35873262       1.38227167      -1.28109563       0.00000000
Si       1.27837405      -1.41872869       1.37425174       0.00000000
Si      -1.46491084       1.39476610       1.22320116       0.00000000
Si      -0.16280226       2.62756073      -2.54183753       0.00000000
Si       2.50927904      -2.75012995      -0.11209785       0.00000000
Si      -2.56069028      -2.71127504       0.09110257       0.00000000
Si      -0.04983111       2.60051933       2.73132525       0.00000000
Si      -2.74102059      -0.00987174       2.63649937       0.00000000
Si       2.75095749       0.13033629      -2.63103890       0.00000000
