10
Lattice="16.2900001489832 0.0 0.0 0.0 16.2900001489832 0.0 0.0 0.0 29.29437231617968" Properties=species:S:1:pos:R:3:initial_magmoms:R:1 pbc="T T T"
Si      -1.36627489       1.37653759       1.34431875       0.00000000
Si       1.27610974       1.40463784      -1.41329820       0.00000000
Si      -1.33550308      -1.28389636      -1.47272477       0.00000000
Si       1.34526079      -1.39636252       1.42273978       0.00000000
Si       0.18033030      -2.70140330      -2.54539680       0.00000000
Si       2.69118947       2.61039107       0.09482588       0.00000000
Si      -2.66473451      -2.68716584      -0.08398697       0.00000000
Si       2.74102059       0.00987174      -2.63649937       0.00000000
Si      -0.03269403       2.65500938       2.78079759       0.00000000
Si      -2.69410538       0.03635928       2.74933543       0.00000000
