10
Lattice="16.2900001489832 0.0 0.0 0.0 16.2900001489832 0.0 0.0 0.0 29.29437231617968" Properties=species:S:1:pos:R:3:initial_magmoms:R:1 pbc="T T T"
Si       1.41933142      -1.44793666      -1.21275772       0.00000000
Si      -1.41530779      -1.36264222       1.32269950       0.00000000
Si       1.41727888       1.26824819       1.43469188       0.00000000
Si      -1.30080538       1.38517129      -1.47148562       0.00000000
Si      -0.03464883       2.64806984       2.66206750       0.00000000
Si       2.70918992       2.67597461       0.03524113       0.00000000
Si      -2.66312180      -2.72117936      -0.14105240       0.00000000
Si      -2.64951965       2.76353337      -0.09251163       0.00000000
Si      -0.06504597      -2.66188376       2.75305582       0.00000000
Si       2.74418085      -0.15969560      -2.67460549       0.00000000
