10
Lattice="16.2900001489832 0.0 0.0 0.0 16.2900001489832 0.0 0.0 0.0 29.29437231617968" Properties=species:S:1:pos:R:3:initial_magmoms:R:1 pbc="T T T"
Si       0.98712514      -0.92278615      -1.92631004       0.00000000
Si      -0.49765950       2.23620977       0.57370099       0.00000000
Si      -2.15353802      -1.03357119      -0.14855176       0.00000000
Si       1.07292457      -0.32026140       2.13599916       0.00000000
Si       1.39303936      -3.02089908      -0.79273501       0.00000000
Si      -2.70451469      -0.42857361       2.05456080       0.00000000
Si      -0.82088569      -1.18514312       3.25120662       0.00000000
Si      -2.36894069       1.91620901       2.14962104       0.00000000
Si      -0.69928084       3.43052742      -1.48534185       0.00000000
Si       1.16768350       3.21905064       1.91819550       0.00000000
