10
Lattice="16.2900001489832 0.0 0.0 0.0 16.2900001489832 0.0 0.0 0.0 29.29437231617968" Properties=species:S:1:pos:R:3:initial_magmoms:R:1 pbc="T T T"
Si      -0.98652241      -1.43771469       1.58819440       0.00000000
Si       0.42059151      -0.99070079      -2.12721085       0.00000000
Si      -2.00964845       1.27751883      -0.15690066       0.00000000
Si       2.25030062       0.22652385       0.80870044       0.00000000
Si       2.82647793      -2.02863444       0.41518914       0.00000000
Si       1.74154763      -2.81290021      -1.49831926       0.00000000
Si      -0.29348064      -0.26937144       3.61817722       0.00000000
Si      -0.51816861       2.05082142       3.05593033       0.00000000
Si      -3.22512681      -1.76682156       0.78051926       0.00000000
Si      -1.68953366      -1.42311885      -3.08563482       0.00000000
