10
Lattice="16.2900001489832 0.0 0.0 0.0 16.2900001489832 0.0 0.0 0.0 29.29437231617968" Properties=species:S:1:pos:R:3:initial_magmoms:R:1 pbc="T T T"
Si       0.95304646       0.09616150      -1.18574831       0.00000000
H       -1.01082709       1.63015009       0.57340804       0.00000000
H        0.15534144       1.07557169       1.74181408       0.00000000
H       -1.26436465      -0.51876157       1.93879120       0.00000000
Si       0.72835849       2.41635437      -1.74799520       0.00000000
Si      -2.15001938       2.32012934      -0.15789667       0.00000000
Si       3.28486224      -0.36602653      -0.46610276       0.00000000
Si       0.26000469      -1.07218175      -3.21573113       0.00000000
Si      -3.07354836       0.69069601      -1.51976274       0.00000000
Si       0.53572923       1.51203130       3.11128791       0.00000000
