10
Lattice="16.2900001489832 0.0 0.0 0.0 16.2900001489832 0.0 0.0 0.0 29.29437231617968" Properties=species:S:1:pos:R:3:initial_magmoms:R:1 pbc="T T T"
Si       1.46491084      -1.39476610      -1.22320116       0.00000000
Si      -1.27610974      -1.40463784       1.41329820       0.00000000
Si       1.41507973       1.20575323       1.50812409       0.00000000
Si      -1.35488818       1.51431841      -1.31932479       0.00000000
H        0.76667257      -2.19152630      -2.29352232       0.00000000
Si      -2.61161282      -2.68853420      -0.05942656       0.00000000
Si       2.82364347      -0.01249443      -2.50429679       0.00000000
Si      -2.64238463      -0.02810025       2.75761695       0.00000000
Si       2.86578570       2.56227041       0.24819071       0.00000000
Si       0.14623533       2.86844097      -2.56804135       0.00000000
