10
Lattice="16.2900001489832 0.0 0.0 0.0 16.2900001489832 0.0 0.0 0.0 29.29437231617968" Properties=species:S:1:pos:R:3:initial_magmoms:R:1 pbc="T T T"
Si      -1.83572012      -0.67232089       1.40334691       0.00000000
Si       1.19456200       2.10732329       0.31857630       0.00000000
Si       1.97423399      -1.38769624       0.52943719       0.00000000
Si      -1.32761872       0.16579962      -2.15117364       0.00000000
H       -2.11190078       2.51401943      -0.19682889       0.00000000
Si      -2.90884017       1.58314366      -1.09681059       0.00000000
Si       1.73941364       2.17378649      -2.15890736       0.00000000
Si      -1.05207337      -2.73657341       2.31343517       0.00000000
H       -1.99617662      -3.26221914      -0.28354023       0.00000000
Si      -1.78162103       0.60993019       3.35783813       0.00000000
