10
Lattice="16.2900001489832 0.0 0.0 0.0 16.2900001489832 0.0 0.0 0.0 29.29437231617968" Properties=species:S:1:pos:R:3:initial_magmoms:R:1 pbc="T T T"
Si       1.80778277       1.14719068      -0.96539604       0.00000000
Si      -1.87224230       0.01159848      -1.46114470       0.00000000
Si       0.97448410      -2.18501030      -0.11550771       0.00000000
Si      -0.55829089       1.27127161       2.02368453       0.00000000
H       -1.65108926      -1.13785651      -2.42944088       0.00000000
Si      -3.13820337      -0.94226248       0.20813652       0.00000000
Si      -0.57725245       3.28895103       0.80471641       0.00000000
Si       1.33894027      -2.46267335       2.22065989       0.00000000
Si       1.66972502       3.24407208      -0.01230364       0.00000000
Si       1.15406506       1.36047565      -3.24514268       0.00000000
