10
Lattice="16.2900001489832 0.0 0.0 0.0 16.2900001489832 0.0 0.0 0.0 29.29437231617968" Properties=species:S:1:pos:R:3:initial_magmoms:R:1 pbc="T T T"
Si      -1.18866502       1.98348671       0.16709510       0.00000000
Si      -1.66534301      -0.98284087      -1.34449451       0.00000000
Si       1.82796608       1.09125082      -1.05374787       0.00000000
Si       0.14529051      -1.71121565       1.67098029       0.00000000
H       -1.02729628       2.35393760      -1.31722145       0.00000000
H        3.09676161       0.57433654      -0.44917061       0.00000000
Si      -0.09475893      -3.53931204       0.21780366       0.00000000
Si      -3.53662419      -1.30284163       0.23142554       0.00000000
Si       1.56463822       3.43500717      -0.59467576       0.00000000
Si      -1.20946735      -1.03237876       3.47958554       0.00000000
