10
Lattice="16.2900001489832 0.0 0.0 0.0 16.2900001489832 0.0 0.0 0.0 29.29437231617968" Properties=species:S:1:pos:R:3:initial_magmoms:R:1 pbc="T T T"
Si       2.33095241      -0.21497913      -0.45092827       0.00000000
Si      -0.73013410       0.15224634       2.29164016       0.00000000
Si      -1.17973810      -1.90478972      -0.94945990       0.00000000
Si      -0.44926191       2.27181971      -0.81165917       0.00000000
H        2.52939719       0.52313706      -1.76179285       0.00000000
Si      -2.73789290       2.27641349      -0.13988063       0.00000000
Si       0.17501976      -2.58362660      -2.75806515       0.00000000
Si      -2.52242507       1.80203240       2.22493687       0.00000000
H        2.14182551       2.88373728      -1.49547771       0.00000000
Si       3.63170892       0.79609231       1.22793220       0.00000000
