10
Lattice="16.2900001489832 0.0 0.0 0.0 16.2900001489832 0.0 0.0 0.0 29.29437231617968" Properties=species:S:1:pos:R:3:initial_magmoms:R:1 pbc="T T T"
Si       0.10337634      -1.98615827      -1.22309863       0.00000000
Si       1.34599384       0.20456982       1.92841924       0.00000000
Si      -2.23998905       0.15555321       0.86181114       0.00000000
Si       0.74767843       1.45476217      -1.94412102       0.00000000
Si       0.87141727       2.41336352       2.40064452       0.00000000
Si      -3.13145931       1.17687106      -1.11011024       0.00000000
Si      -1.92116117      -1.91700722      -2.44455678       0.00000000
Si       3.51127695      -0.06902073       1.11936726       0.00000000
Si       2.35035380      -2.03103722      -2.04011868       0.00000000
Si      -0.08612523       3.57337443      -1.34376215       0.00000000
