10
Lattice="16.2900001489832 0.0 0.0 0.0 16.2900001489832 0.0 0.0 0.0 29.29437231617968" Properties=species:S:1:pos:R:3:initial_magmoms:R:1 pbc="T T T"
Si      -1.25551918       1.42472341       1.37085945       0.00000000
Si       1.21249729      -1.46859238       1.39681426       0.00000000
Si       1.45922563       1.42860043      -1.19233954       0.00000000
Si      -1.34588144      -1.33289668      -1.42918454       0.00000000
H        2.15430365      -0.54151219       2.14259039       0.00000000
Si      -2.59408478      -0.14255379       2.56070897       0.00000000
Si       2.52835463      -2.69924651      -0.08612545       0.00000000
Si       0.03073923       2.72469800      -2.63514597       0.00000000
Si       2.66445758       0.05756886      -2.73477613       0.00000000
Si      -2.16893207      -3.14544916      -0.14969424       0.00000000
