10
Lattice="16.2900001489832 0.0 0.0 0.0 16.2900001489832 0.0 0.0 0.0 29.29437231617968" Properties=species:S:1:pos:R:3:initial_magmoms:R:1 pbc="T T T"
Si      -1.41045337       1.41530942       1.18964446       0.00000000
Si      -1.32250366      -1.28142028      -1.42839359       0.00000000
Si       0.57943531      -1.58553829       1.61104401       0.00000000
Si       1.51736464       1.34342654      -1.21571645       0.00000000
H       -2.35346519       0.44057934       1.90266948       0.00000000
H        0.93599083       1.73226070       2.93386068       0.00000000
Si      -2.60525972      -2.62645301       0.02235161       0.00000000
Si       0.12057858      -2.74330119      -2.61235495       0.00000000
Si       0.15982119       2.64871167      -2.74675753       0.00000000
Si      -2.72373689       2.73234453      -0.17096196       0.00000000
