10
Lattice="16.2900001489832 0.0 0.0 0.0 16.2900001489832 0.0 0.0 0.0 29.29437231617968" Properties=species:S:1:pos:R:3:initial_magmoms:R:1 pbc="T T T"
Si       2.26031897      -0.31008015       0.35859241       0.00000000
Si      -0.57943531       1.58553829      -1.61104401       0.00000000
Si      -1.67081645      -0.38827215       1.62267387       0.00000000
H       -2.14461110      -2.04341762      -1.15370026       0.00000000
H       -2.93290050       2.02611764       0.29162548       0.00000000
Si       2.77320963      -1.58019517      -1.63447950       0.00000000
H        0.35655552       3.31779899       1.32281668       0.00000000
Si      -1.90193897       0.30411801      -3.03943760       0.00000000
Si      -1.98988868       3.00084772      -0.42139955       0.00000000
Si      -3.18469503      -1.04091472      -1.58869240       0.00000000
