10
Lattice="16.2900001489832 0.0 0.0 0.0 16.2900001489832 0.0 0.0 0.0 29.29437231617968" Properties=species:S:1:pos:R:3:initial_magmoms:R:1 pbc="T T T"
Si      -1.23090499       1.33140126       1.48634958       0.00000000
Si       1.43892829       1.35248052      -1.28526715       0.00000000
Si       1.45070596      -1.35836773       1.30321288       0.00000000
Si      -1.29839446      -1.60312548      -1.23180492       0.00000000
H       -0.13543506      -2.51725789      -1.61837346       0.00000000
Si      -2.50927904       2.75012995       0.11209785       0.00000000
Si       2.62063748      -0.02080396      -2.76023880       0.00000000
Si      -2.53690688      -0.07890224       2.85218211       0.00000000
Si       0.24167844       2.88046624      -2.51894105       0.00000000
Si       0.15731253      -2.68592455       2.75407526       0.00000000
