10
Lattice="16.2900001489832 0.0 0.0 0.0 16.2900001489832 0.0 0.0 0.0 29.29437231617968" Properties=species:S:1:pos:R:3:initial_magmoms:R:1 pbc="T T T"
Si      -1.40993209       1.74758356      -0.74073750       0.00000000
Si       2.34199703       0.20337462      -0.29171336       0.00000000
Si      -0.41172975      -1.99276337      -1.22327440       0.00000000
Si      -1.04923891      -0.57967102       2.06033179       0.00000000
H        1.74283454       1.76960764       1.92648581       0.00000000
H        0.13071096       3.08043137       1.63409868       0.00000000
Si      -3.15936408      -1.01208908       1.10190781       0.00000000
Si       0.27171720      -2.40187044       2.68922338       0.00000000
Si      -0.48063645       3.60376392       0.34986269       0.00000000
Si      -2.44048637      -2.77253310      -0.26572925       0.00000000
