10
Lattice="16.2900001489832 0.0 0.0 0.0 16.2900001489832 0.0 0.0 0.0 29.29437231617968" Properties=species:S:1:pos:R:3:initial_magmoms:R:1 pbc="T T T"
Si      -0.21105324      -0.06408486       1.53148049       0.00000000
H        0.88448185       1.03008187      -1.83910069       0.00000000
Si       2.13732947       0.24715188      -1.54196788       0.00000000
H       -0.32017995       1.88970518      -2.16333081       0.00000000
Si       1.91669771      -0.69864553       2.19400201       0.00000000
H       -0.91727362       2.71091666       0.95309240       0.00000000
Si      -2.02022066      -1.45064080       1.71647445       0.00000000
Si       3.08434863       0.53704872       0.60094475       0.00000000
Si      -1.11571840       1.97280047       2.26395698       0.00000000
Si      -3.27165105      -0.39584700      -0.04317990       0.00000000
