10
Lattice="16.2900001489832 0.0 0.0 0.0 16.2900001489832 0.0 0.0 0.0 29.29437231617968" Properties=species:S:1:pos:R:3:initial_magmoms:R:1 pbc="T T T"
Si       0.60841522      -0.96255982       2.05353550       0.00000000
Si       1.72437797       1.01757115      -1.27957818       0.00000000
Si      -0.91049698      -1.80931403      -1.26774326       0.00000000
Si      -1.69038074       1.77663629       0.30076532       0.00000000
Si      -2.25440570      -0.44163819      -2.66977192       0.00000000
Si       0.40604454       2.34274637      -2.67812081       0.00000000
Si      -3.43696197       0.99375517      -1.18226228       0.00000000
Si      -1.45556038      -1.78484645       2.98910987       0.00000000
Si      -0.82717363       3.59380209      -1.06197959       0.00000000
Si       2.66328470       2.79805188      -0.01300670       0.00000000
