10
Lattice="16.2900001489832 0.0 0.0 0.0 16.2900001489832 0.0 0.0 0.0 29.29437231617968" Properties=species:S:1:pos:R:3:initial_magmoms:R:1 pbc="T T T"
Si      -1.77852593      -1.17240923       1.04018457       0.00000000
Si       0.02876814      -0.65306285      -2.29038050       0.00000000
Si       2.25256493      -0.55572358       0.68027391       0.00000000
Si      -0.39638457       2.34983252       0.42002271       0.00000000
H       -3.21354462       0.02355534       1.57984550       0.00000000
Si       3.41019750       1.02379393      -0.74387200       0.00000000
Si       2.02226668      -0.35651480       3.05912342       0.00000000
Si       2.37302948      -2.85768957      -0.01051668       0.00000000
Si       1.62815782      -2.49513932      -2.27072398       0.00000000
Si      -0.17216901       0.24397533       3.79104331       0.00000000
