10
Lattice="16.2900001489832 0.0 0.0 0.0 16.2900001489832 0.0 0.0 0.0 29.29437231617968" Properties=species:S:1:pos:R:3:initial_magmoms:R:1 pbc="T T T"
Si       1.60534693      -1.60500484       0.45426783       0.00000000
Si      -1.81221365      -0.44753517       1.38881690       0.00000000
Si       0.68913217       2.20395557       0.51317881       0.00000000
Si      -0.34039584      -0.03012021      -2.34085470       0.00000000
H        2.34444053      -1.64318860      -0.87634115       0.00000000
H       -1.20086623      -0.97086772       2.67305289       0.00000000
Si      -1.38552967       3.23146362       0.27173460       0.00000000
Si       1.84539638       0.58922560      -2.97932555       0.00000000
Si      -2.76429900       1.70968439       1.48668940       0.00000000
Si      -2.74150929      -2.30371553       0.29821671       0.00000000
