10
Lattice="16.2900001489832 0.0 0.0 0.0 16.2900001489832 0.0 0.0 0.0 29.29437231617968" Properties=species:S:1:pos:R:3:initial_magmoms:R:1 pbc="T T T"
Si      -1.87444145      -0.27945495      -1.38544804       0.00000000
Si       0.95208535      -2.15721956      -0.09787250       0.00000000
Si      -0.12403206       0.55812799       2.31135527       0.00000000
Si       1.37876932       1.52177923      -1.21495480       0.00000000
H        1.14476347       0.04121370       2.91593253       0.00000000
H        1.56343276      -2.68055210       1.18636349       0.00000000
Si       2.76429900      -1.70968439      -1.48668940       0.00000000
Si       3.45343116       0.49427118      -0.97351058       0.00000000
Si      -1.89340301       1.73822447      -2.60441617       0.00000000
Si      -3.81896247      -0.32164605      -0.03843422       0.00000000
