10
Lattice="16.2900001489832 0.0 0.0 0.0 16.2900001489832 0.0 0.0 0.0 29.29437231617968" Properties=species:S:1:pos:R:3:initial_magmoms:R:1 pbc="T T T"
Si      -0.19844478      -0.73811620       1.31086457       0.00000000
H       -0.38757168       2.36060021       0.26631514       0.00000000
Si       0.70622038      -2.77500153       0.57838809       0.00000000
H        0.91727362      -2.71091666      -0.95309240       0.00000000
Si      -2.52939719      -0.52313706       1.76179285       0.00000000
Si       1.10231173       0.27295524       2.98972505       0.00000000
H        1.69839542       0.57019888      -2.66444034       0.00000000
Si       0.84304009       3.01604466       0.84490829       0.00000000
H        0.59709367      -0.82121149      -3.11642321       0.00000000
Si       2.42233931       1.52269147       1.61329967       0.00000000
