10
Lattice="16.2900001489832 0.0 0.0 0.0 16.2900001489832 0.0 0.0 0.0 29.29437231617968" Properties=species:S:1:pos:R:3:initial_magmoms:R:1 pbc="T T T"
Si       1.46331442       1.29191104       1.27476043       0.00000000
Si      -1.23217561      -1.41885901       1.39145163       0.00000000
Si       1.26583075      -1.41470506      -1.51603533       0.00000000
Si      -1.84992500       1.45031500      -0.61778199       0.00000000
Si      -2.85397545      -0.55579852      -1.59284517       0.00000000
Si      -0.56731555       2.59783148      -2.37427255       0.00000000
Si       1.85124449       2.02740455      -2.28123362       0.00000000
Si      -2.61807995      -2.49759911      -0.12950339       0.00000000
Si       0.03930777       2.66704769       2.55483955       0.00000000
Si      -2.73160497      -0.02927313       2.55600546       0.00000000
