10
Lattice="16.2900001489832 0.0 0.0 0.0 16.2900001489832 0.0 0.0 0.0 29.29437231617968" Properties=species:S:1:pos:R:3:initial_magmoms:R:1 pbc="T T T"
Si      -0.88658326      -0.79495201       0.97637381       0.00000000
H        1.41970609       1.59433327      -0.19697712       0.00000000
H        1.26436465       0.51876157      -1.93879120       0.00000000
H        0.25353756       2.14891166      -1.36538316       0.00000000
Si       1.80009389       2.03079287       1.17249671       0.00000000
Si      -1.83816362      -2.46542636      -0.40915626       0.00000000
Si       0.48540942      -2.11998062       2.36478645       0.00000000
Si      -2.35116830       0.66256481       2.18465828       0.00000000
Si      -2.04315698      -1.05836131      -2.41751983       0.00000000
Si      -0.88565473       2.83889091      -2.09668787       0.00000000
