10
Lattice="16.2900001489832 0.0 0.0 0.0 16.2900001489832 0.0 0.0 0.0 29.29437231617968" Properties=species:S:1:pos:R:3:initial_magmoms:R:1 pbc="T T T"
Si      -1.32002758      -1.24973623       1.37642538       0.00000000
Si      -1.57929922       1.49335318      -0.76839139       0.00000000
Si       1.29841075      -1.37132479      -1.40199936       0.00000000
Si       1.40800987       1.46880415       1.18689079       0.00000000
H        2.58587462      -1.18384318      -0.61219379       0.00000000
H       -2.80991100       0.83790874      -1.34698453       0.00000000
H       -2.42233931      -1.52269147      -1.61329967       0.00000000
Si      -2.62078409      -2.26080767      -0.30243510       0.00000000
Si      -2.47590083       0.38591010       2.57342272       0.00000000
Si       0.20150730      -2.49502529       2.63716728       0.00000000
