10
Lattice="16.2900001489832 0.0 0.0 0.0 16.2900001489832 0.0 0.0 0.0 29.29437231617968" Properties=species:S:1:pos:R:3:initial_magmoms:R:1 pbc="T T T"
Si      -2.26031897       0.31008015      -0.35859241       0.00000000
Si       0.51289065      -1.27011502      -1.99307191       0.00000000
Si       0.23257233      -0.56192356       2.36042334       0.00000000
Si       1.13676508       1.98539264      -0.87496431       0.00000000
H        1.15126318       2.64914498       1.58221834       0.00000000
Si       1.50990382       0.50080347      -3.24572857       0.00000000
Si       3.31574808       1.83249470      -0.00237284       0.00000000
Si      -0.85388923       1.25612191       3.50618483       0.00000000
Si       2.57336390      -0.74036422       2.84899489       0.00000000
Si      -2.83975428       1.89561845      -1.96963642       0.00000000
