10
Lattice="16.2900001489832 0.0 0.0 0.0 16.2900001489832 0.0 0.0 0.0 29.29437231617968" Properties=species:S:1:pos:R:3:initial_magmoms:R:1 pbc="T T T"
Si      -0.60023764      -0.34446834      -2.18919774       0.00000000
Si       1.17568189      -1.86020399       0.71147242       0.00000000
Si       1.48709782       1.77653855       0.00843678       0.00000000
Si      -1.71611894       0.70740955       1.45765867       0.00000000
Si       1.49073049       1.88714765       2.38286283       0.00000000
Si      -0.60957181      -3.36300537       0.88890843       0.00000000
Si      -2.39956589       1.11651661      -2.45483911       0.00000000
Si       0.35416089       3.31265461      -1.52327807       0.00000000
Si       1.24980139       0.37120023      -3.45802489       0.00000000
Si      -0.63118864       1.49167531       3.37116707       0.00000000
