10
Lattice="16.2900001489832 0.0 0.0 0.0 16.2900001489832 0.0 0.0 0.0 29.29437231617968" Properties=species:S:1:pos:R:3:initial_magmoms:R:1 pbc="T T T"
Si       0.49971204      -2.21319200      -0.54625216       0.00000000
Si       0.59616514       0.54954316       2.20944015       0.00000000
Si      -2.32811795      -0.03947067      -0.57211909       0.00000000
Si       0.84066175       1.59449779      -1.60987223       0.00000000
Si      -1.82133605      -0.71527762      -2.82122382       0.00000000
Si      -0.24426855       0.81023203      -3.52338063       0.00000000
Si      -0.55799767      -3.43844436       1.11239520       0.00000000
Si       0.05251896       2.89157277       2.31276140       0.00000000
Si      -2.97233859       2.18541755      -0.43686697       0.00000000
Si      -0.71258977      -2.73399960      -2.48999235       0.00000000
