10
Lattice="16.2900001489832 0.0 0.0 0.0 16.2900001489832 0.0 0.0 0.0 29.29437231617968" Properties=species:S:1:pos:R:3:initial_magmoms:R:1 pbc="T T T"
Si      -1.20392875      -0.38055395      -1.88336449       0.00000000
Si       0.20268018       2.28790283       0.44152478       0.00000000
Si      -0.91983115      -1.06666758       1.87516207       0.00000000
Si       2.09261342      -0.98090073      -0.46071259       0.00000000
Si       1.66131074       1.47082900       2.27236446       0.00000000
H        1.45427347       1.00719931      -2.75361241       0.00000000
Si       2.92021547      -0.49569167       1.68176062       0.00000000
Si       0.28240344       0.38529597      -3.49648840       0.00000000
Si       0.28232199       0.10349037       3.62506140       0.00000000
Si      -3.26241462      -0.46630777       1.61414921       0.00000000
