10
Lattice="16.2900001489832 0.0 0.0 0.0 16.2900001489832 0.0 0.0 0.0 29.29437231617968" Properties=species:S:1:pos:R:3:initial_magmoms:R:1 pbc="T T T"
Si       0.91983115       1.06666758      -1.87516207       0.00000000
Si       0.53814015      -2.31664653      -0.31670146       0.00000000
Si       1.20215314       1.17015795       1.74989933       0.00000000
Si      -2.34258347       0.60035981      -0.26101286       0.00000000
H       -1.55391940      -1.32629597       2.89176467       0.00000000
Si       2.58114189       2.53749658       0.39720239       0.00000000
Si      -2.35890605       2.88613516       0.33158300       0.00000000
Si       3.01244457       0.08576685      -2.33587466       0.00000000
Si      -0.77711446      -3.56069755       1.12566555       0.00000000
Si       1.12251133       3.35457041      -1.43363729       0.00000000
