10
Lattice="16.2900001489832 0.0 0.0 0.0 16.2900001489832 0.0 0.0 0.0 29.29437231617968" Properties=species:S:1:pos:R:3:initial_magmoms:R:1 pbc="T T T"
Si      -0.21804165      -2.29876337       0.22867187       0.00000000
Si       0.03060891       0.49389651       2.30253766       0.00000000
Si       2.45566865       0.16135245      -0.01403200       0.00000000
H        0.13089015       2.43745643      -0.45130910       0.00000000
Si      -1.70794136       1.00349659      -1.52219417       0.00000000
Si       0.34124292      -2.20204964      -2.01474975       0.00000000
Si       0.65534671       3.51186339       0.50108024       0.00000000
Si       1.79176970      -2.89390224       1.34349850       0.00000000
Si      -0.30931452       2.48386664      -2.81387093       0.00000000
Si      -0.25386336       2.81271288       2.54954781       0.00000000
