10
Lattice="16.2900001489832 0.0 0.0 0.0 16.2900001489832 0.0 0.0 0.0 29.29437231617968" Properties=species:S:1:pos:R:3:initial_magmoms:R:1 pbc="T T T"
Si      -1.40491477      -1.17792991       1.41863857       0.00000000
Si      -0.28447227       2.31881636       0.24701015       0.00000000
Si      -0.03060891      -0.49389651      -2.30253766       0.00000000
Si       2.05703606      -0.43085421       1.11866420       0.00000000
Si       2.42505974      -0.33254406      -2.31656967       0.00000000
H        0.10028124       1.94355992      -2.75384676       0.00000000
Si       1.51801624       0.74344303       3.04350952       0.00000000
Si      -0.24865056      -2.79265989      -2.07386579       0.00000000
Si      -0.29489787      -0.67365667       3.47182253       0.00000000
Si       0.62473780       3.01796688      -1.80145743       0.00000000
