10
Lattice="16.2900001489832 0.0 0.0 0.0 16.2900001489832 0.0 0.0 0.0 29.29437231617968" Properties=species:S:1:pos:R:3:initial_magmoms:R:1 pbc="T T T"
Si      -2.16424055       0.87436576       0.14409902       0.00000000
Si       0.80861932       1.11280249      -1.92672016       0.00000000
Si       0.19741851      -2.23186034      -0.80392546       0.00000000
Si       0.94638385       0.38784861       2.19792746       0.00000000
H       -1.52621011      -0.29458836       2.67630456       0.00000000
Si      -2.81367399      -0.48206997       1.88649899       0.00000000
Si      -1.74193859      -2.39174669      -2.18453993       0.00000000
Si       3.21220884      -0.23125284       1.78859720       0.00000000
Si       2.72812053      -0.13488120      -2.48243440       0.00000000
Si      -0.21903534      -3.57456360       1.15088801       0.00000000
