10
Lattice="16.2900001489832 0.0 0.0 0.0 16.2900001489832 0.0 0.0 0.0 29.29437231617968" Properties=species:S:1:pos:R:3:initial_magmoms:R:1 pbc="T T T"
Si       1.29811916      -1.30735396       1.43606872       0.00000000
Si       1.33412495       1.38613892      -1.33740527       0.00000000
Si      -1.21329550       1.27207145       1.55304115       0.00000000
Si      -1.40957371      -1.37863900      -1.27219600       0.00000000
Si      -1.92896408      -0.63783496       2.75762574       0.00000000
Si       2.13606374       0.42531561       2.82368455       0.00000000
Si      -0.32032656      -2.51043563       2.61115388       0.00000000
Si       0.53667405       2.26739209       2.80402802       0.00000000
Si       0.00255753      -2.72860760      -2.59299137       0.00000000
Si      -2.70684416       2.62152692       0.28392106       0.00000000
