10
Lattice="16.2900001489832 0.0 0.0 0.0 16.2900001489832 0.0 0.0 0.0 29.29437231617968" Properties=species:S:1:pos:R:3:initial_magmoms:R:1 pbc="T T T"
Si      -0.83794458      -1.73266958      -1.38761583       0.00000000
Si       1.74273191       0.93921462      -1.31432131       0.00000000
Si       0.74487166      -0.36255024       2.26020730       0.00000000
Si      -1.59938968       1.84207647      -0.01965652       0.00000000
Si      -2.13606374      -0.42531561      -2.82368455       0.00000000
Si       0.62440711       1.93941574       2.95099789       0.00000000
Si       0.52542907       2.34522245      -2.76629687       0.00000000
Si      -3.34935924       0.84675584      -1.27064340       0.00000000
Si      -1.62815782       2.49513932       2.27072398       0.00000000
Si      -2.45639030      -2.93575125      -0.21253067       0.00000000
