10
Lattice="16.2900001489832 0.0 0.0 0.0 16.2900001489832 0.0 0.0 0.0 29.29437231617968" Properties=species:S:1:pos:R:3:initial_magmoms:R:1 pbc="T T T"
Si      -1.48709782      -1.77653855      -0.00843678       0.00000000
Si       0.00363267       0.11060910       2.37442605       0.00000000
Si       2.26514081      -0.41293521      -0.60639351       0.00000000
Si      -1.13293693       1.53611606      -1.53171485       0.00000000
H        1.65022589       2.06458484      -2.01510128       0.00000000
Si       0.54879381       2.34656638       2.39088949       0.00000000
Si       2.72350883       1.79895033      -0.98437879       0.00000000
H       -1.73209943       3.10234908       0.68648432       0.00000000
Si      -3.20321676      -1.06912900       1.44922189       0.00000000
Si      -2.08733546      -2.12100689      -2.19763452       0.00000000
