10
Lattice="16.2900001489832 0.0 0.0 0.0 16.2900001489832 0.0 0.0 0.0 29.29437231617968" Properties=species:S:1:pos:R:3:initial_magmoms:R:1 pbc="T T T"
Si       0.54516114       2.23595728       0.01646344       0.00000000
Si       1.51242877      -1.32080950       1.13691459       0.00000000
Si      -2.12191913      -0.39547233       0.98830424       0.00000000
Si      -0.00363267      -0.11060910      -2.37442605       0.00000000
Si      -1.49073049      -1.88714765      -2.38286283       0.00000000
Si      -1.54479700       3.16177500      -0.19035483       0.00000000
Si      -3.20684943      -1.17973810      -0.92520416       0.00000000
Si      -2.69809643       1.85968596       1.38181554       0.00000000
Si       0.94835494      -3.49604580       0.32622213       0.00000000
Si       1.74908990       2.61651123       1.89982793       0.00000000
