10
Lattice="16.2900001489832 0.0 0.0 0.0 16.2900001489832 0.0 0.0 0.0 29.29437231617968" Properties=species:S:1:pos:R:3:initial_magmoms:R:1 pbc="T T T"
Si      -1.31525461      -1.24405102       1.44236701       0.00000000
Si       2.05374466      -0.84672163       0.87566738       0.00000000
Si       0.14502987      -0.55400662      -2.32137395       0.00000000
Si      -0.53814015       2.31664653       0.31670146       0.00000000
Si      -0.59732173      -3.46201599       0.64928047       0.00000000
Si       2.37397430       0.10269216      -2.67234982       0.00000000
Si      -0.07783362      -1.11632113       3.50808897       0.00000000
Si       3.15716004       1.05298561       1.62566190       0.00000000
Si       0.38169099       3.38331411      -1.55846061       0.00000000
Si      -1.36739890       0.76680289      -3.45828854       0.00000000
