10
Lattice="16.2900001489832 0.0 0.0 0.0 16.2900001489832 0.0 0.0 0.0 29.29437231617968" Properties=species:S:1:pos:R:3:initial_magmoms:R:1 pbc="T T T"
Si      -1.70967298      -0.79482169       1.36681682       0.00000000
Si       1.56869443       0.76639564       1.54838334       0.00000000
Si       0.93330298      -1.40494735      -1.61417850       0.00000000
Si      -0.28492839       2.22207005      -0.71718482       0.00000000
H       -0.47964276      -1.75273886      -2.44848223       0.00000000
Si       0.30457413       2.80706025       1.51487058       0.00000000
H       -1.33859492       0.00728163      -3.01031899       0.00000000
Si      -1.23152564      -3.13017240       1.03804608       0.00000000
Si       3.51321546       0.80858674       0.20136952       0.00000000
H       -2.58739106      -2.47287089      -0.74606907       0.00000000
