10
Lattice="16.2900001489832 0.0 0.0 0.0 16.2900001489832 0.0 0.0 0.0 29.29437231617968" Properties=species:S:1:pos:R:3:initial_magmoms:R:1 pbc="T T T"
Si       1.59606489      -0.91298935       1.48794905       0.00000000
Si       0.60490146       2.28395576      -0.23385697       0.00000000
Si      -1.92580056       0.18697662       1.44465197       0.00000000
Si      -0.01264267      -0.95988826      -2.32858036       0.00000000
H       -1.09066112      -2.43643016       0.20432825       0.00000000
Si       3.46734608      -0.59298859      -0.08797100       0.00000000
Si       1.70843331       2.79324633       1.81048009       0.00000000
Si       1.26049089      -3.25777197       1.39288881       0.00000000
Si      -1.31459975       3.53163945       0.32185727       0.00000000
Si      -2.05072857      -0.16057053      -3.22364061       0.00000000
