10
Lattice="16.2900001489832 0.0 0.0 0.0 16.2900001489832 0.0 0.0 0.0 29.29437231617968" Properties=species:S:1:pos:R:3:initial_magmoms:R:1 pbc="T T T"
Si      -1.40426317       1.33081156       1.34691423       0.00000000
Si       1.36567216      -1.23696487       1.50007399       0.00000000
Si       0.95983939       1.75730006      -1.30271195       0.00000000
Si      -0.80845642      -1.80612119      -1.37454175       0.00000000
Si       2.68868081      -2.53053749       0.07416749       0.00000000
Si      -2.58738959      -2.73043208      -0.05721777       0.00000000
Si       0.10648773       2.64393218       2.71559710       0.00000000
Si      -2.65961945       2.73826758      -0.17115823       0.00000000
Si       0.98383456      -3.45590724      -1.30783846       0.00000000
Si      -2.65243556      -0.02334357       2.83825264       0.00000000
