10
Lattice="16.2900001489832 0.0 0.0 0.0 16.2900001489832 0.0 0.0 0.0 29.29437231617968" Properties=species:S:1:pos:R:3:initial_magmoms:R:1 pbc="T T T"
Si      -1.24359490       1.28218591      -1.52067087       0.00000000
Si      -1.47236841      -1.25061589       1.33983671       0.00000000
Si       1.39940875       1.31839858       1.38618040       0.00000000
Si       1.42949638      -1.43133715      -1.27743969       0.00000000
H        2.43949268       0.31589568       1.82117254       0.00000000
Si      -0.00578295      -2.60970689       2.60831232       0.00000000
Si      -2.65491002       2.65624742      -0.23866125       0.00000000
Si       2.68216481       2.66343131      -0.06456480       0.00000000
Si      -2.61204614      -2.79671610      -0.04971255       0.00000000
Si       2.73419508      -0.07379370      -2.70595047       0.00000000
