10
Lattice="16.2900001489832 0.0 0.0 0.0 16.2900001489832 0.0 0.0 0.0 29.29437231617968" Properties=species:S:1:pos:R:3:initial_magmoms:R:1 pbc="T T T"
Si      -0.84631438      -2.16091739       0.44755942       0.00000000
Si      -0.89147026       1.02131785      -1.97192138       0.00000000
Si      -0.79252480       1.15725790       1.94913036       0.00000000
Si       2.23998905      -0.15555321      -0.86181114       0.00000000
H        1.25747398      -2.05912118       2.56738808       0.00000000
Si      -1.43581690      -2.74590759      -1.78449598       0.00000000
Si       3.58598289       0.04901661       1.06660810       0.00000000
Si       1.08493030       2.38281977       2.68204626       0.00000000
Si       2.34336539      -2.14171148      -2.08490977       0.00000000
Si      -3.19820433       0.53400249      -2.18281156       0.00000000
