10
Lattice="16.2900001489832 0.0 0.0 0.0 16.2900001489832 0.0 0.0 0.0 29.29437231617968" Properties=species:S:1:pos:R:3:initial_magmoms:R:1 pbc="T T T"
Si      -1.24781401      -1.35853714      -1.46375190       0.00000000
Si       1.35026182      -1.29924154       1.43035632       0.00000000
Si      -1.40613652       1.36545876       1.32955438       0.00000000
Si       1.41530779       1.36264222      -1.32269950       0.00000000
Si      -2.57549789      -2.68048694      -0.02574975       0.00000000
Si       2.83463922      -0.08529444      -2.53545722       0.00000000
Si      -2.62343936       2.77146660      -0.12242118       0.00000000
Si      -0.05097141       2.71452327       2.68778795       0.00000000
Si      -2.56446956       0.02231730      -2.86021463       0.00000000
Si       2.83258668       2.63089041       0.11199239       0.00000000
