10
Lattice="16.28999089631971 0.0 0.0 0.0 16.28999089631971 0.0 0.0 0.0 34.40246978574605" Properties=species:S:1:pos:R:3:initial_magmoms:R:1 pbc="T T T"
Si       1.33856526       1.34894232       1.36871679       0.00000000
Si      -1.27856074       1.41340185      -1.37857654       0.00000000
Si      -1.37753878      -1.36611198       1.36537974       0.00000000
Si       1.41117957      -1.25546704      -1.51298018       0.00000000
Si      -2.08577911      -0.49733370      -2.64714218       0.00000000
Si      -0.38278993      -2.36737194      -2.69529882       0.00000000
Si       2.69710239      -2.70158833      -0.00864191       0.00000000
Si       0.23820834       2.78291844      -2.60278705       0.00000000
Si       2.72113014       2.69936703       0.01639967       0.00000000
Si       2.69926896      -0.00382815       2.72658303       0.00000000
