10
Lattice="16.28999089631971 0.0 0.0 0.0 16.28999089631971 0.0 0.0 0.0 34.40246978574605" Properties=species:S:1:pos:R:3:initial_magmoms:R:1 pbc="T T T"
Si       1.35806472       1.33699784       1.37808114       0.00000000
Si       1.34877942      -1.37479587      -1.37762703       0.00000000
Si      -1.35827323      -1.37508909       1.37230153       0.00000000
Si      -1.28592283       1.44612129      -1.50433828       0.00000000
Si      -0.39612393      -2.43208203      -2.75030152       0.00000000
Si      -2.69710239       2.70158833       0.00864191       0.00000000
Si       2.73471633       2.66368150       0.02301527       0.00000000
Si       0.00216657       2.69776018       2.73522493       0.00000000
Si       2.71469592      -0.01809444       2.73532814       0.00000000
Si      -2.71582708      -0.01960082       2.73550015       0.00000000
