10
Lattice="16.28999089631971 0.0 0.0 0.0 16.28999089631971 0.0 0.0 0.0 34.40246978574605" Properties=species:S:1:pos:R:3:initial_magmoms:R:1 pbc="T T T"
Si      -0.97335682      -0.48487185      -2.13818350       0.00000000
Si       0.17379801       2.39392953      -0.16220774       0.00000000
Si       1.93277592      -1.43550738       0.30700781       0.00000000
Si      -1.19992792      -0.44113320       2.07199311       0.00000000
Si       1.08129762      -2.81566134       1.99599801       0.00000000
Si      -3.23336042      -0.07579737      -1.75862084       0.00000000
Si       3.45861135      -0.01884753       1.40902274       0.00000000
Si       2.19509379       2.70106675      -1.40430960       0.00000000
Si      -0.20388564       1.25188650      -3.53561260       0.00000000
Si      -2.59873460      -2.26802412       1.60363762       0.00000000
