10
Lattice="16.28999089631971 0.0 0.0 0.0 16.28999089631971 0.0 0.0 0.0 34.40246978574605" Properties=species:S:1:pos:R:3:initial_magmoms:R:1 pbc="T T T"
Si       1.35684297       1.35718506       1.35707498       0.00000000
Si      -1.35661491       1.35547461      -1.36072165       0.00000000
Si      -1.35817875      -1.35849641       1.35690297       0.00000000
Si       1.35531171      -1.36187495      -1.35814146       0.00000000
Si      -2.69591355      -0.03241710      -2.71241608       0.00000000
Si      -0.00296478       2.72499120      -2.69656342       0.00000000
Si       2.71366965       2.71500543      -0.00092887       0.00000000
Si       2.71492398      -0.00136836       2.71404676       0.00000000
Si      -2.71331127       2.71599912      -0.00037843       0.00000000
Si      -0.00070047       2.71445157       2.71487242       0.00000000
