10
Lattice="16.28999089631971 0.0 0.0 0.0 16.28999089631971 0.0 0.0 0.0 34.40246978574605" Properties=species:S:1:pos:R:3:initial_magmoms:R:1 pbc="T T T"
Si      -1.04767506      -1.52029846       1.47005276       0.00000000
Si      -1.27832517       1.25011089      -1.57143689       0.00000000
Si       0.86825700       1.77189588       1.52151888       0.00000000
Si       1.45446894      -1.45560110      -1.54030264       0.00000000
Si       2.57720832       2.64616389      -0.03278557       0.00000000
Si      -2.64779289       2.64165156      -0.16323981       0.00000000
Si      -2.55656889      -2.81480364       0.00880704       0.00000000
Si      -0.90344340       3.59244999       1.07263520       0.00000000
Si       0.10028124       2.60789868      -2.94849972       0.00000000
Si      -2.61389340      -0.10793754      -2.94812130       0.00000000
