10
Lattice="16.28999089631971 0.0 0.0 0.0 16.28999089631971 0.0 0.0 0.0 34.40246978574605" Properties=species:S:1:pos:R:3:initial_magmoms:R:1 pbc="T T T"
Si      -0.14916753       2.34292554       0.33057352       0.00000000
Si       2.19913371      -0.65384802       0.59884413       0.00000000
Si      -0.25249500      -0.20551464      -2.36964344       0.00000000
Si      -1.94378796      -0.76639563       1.27784605       0.00000000
Si      -0.51240195       2.04784848       2.69601986       0.00000000
Si      -3.53512548      -0.65265885      -0.44558104       0.00000000
Si      -2.31458094      -1.42879590      -2.39283072       0.00000000
Si       0.95273694       0.34241580       3.64373962       0.00000000
Si       3.43065771      -0.92670552      -1.37902377       0.00000000
Si       2.91051801       0.72438372       2.36437986       0.00000000
