10
Lattice="16.28999089631971 0.0 0.0 0.0 16.28999089631971 0.0 0.0 0.0 34.40246978574605" Properties=species:S:1:pos:R:3:initial_magmoms:R:1 pbc="T T T"
Si       1.99651869       0.34214213       1.03348517       0.00000000
Si      -1.57007907      -1.02135694       1.42116682       0.00000000
Si       0.22530699      -1.61376463      -1.72504401       0.00000000
Si      -1.00874196       2.02788834       0.89549679       0.00000000
Si      -3.16229625      -0.24850232      -0.13895165       0.00000000
Si      -2.65015494       2.02324569      -0.77777147       0.00000000
Si      -1.85556132       0.90039228       2.82262102       0.00000000
Si       3.41527995      -1.00211193      -0.26558722       0.00000000
Si       2.08357245       2.28316893      -1.86729830       0.00000000
Si       2.61633690       2.55078105       0.48958182       0.00000000
