10
Lattice="16.28999089631971 0.0 0.0 0.0 16.28999089631971 0.0 0.0 0.0 34.40246978574605" Properties=species:S:1:pos:R:3:initial_magmoms:R:1 pbc="T T T"
Si      -0.13691745      -0.58249782      -2.26526530       0.00000000
Si      -1.88801100      -0.81063927       1.15091360       0.00000000
Si       0.81182844       1.94414634       1.10289116       0.00000000
Si       1.92129147      -1.55183427      -0.11126453       0.00000000
Si       2.10108420       0.59965119       2.51921411       0.00000000
Si      -0.59186457      -2.15775711       2.50336145       0.00000000
Si       2.25479664      -0.83429235      -2.57488770       0.00000000
Si      -1.91562255       0.88047450      -2.90986474       0.00000000
Si      -1.33951041      -2.61050508      -2.11392875       0.00000000
Si      -3.04535034      -2.06905806      -0.43942200       0.00000000
