10
Lattice="16.28999089631971 0.0 0.0 0.0 16.28999089631971 0.0 0.0 0.0 34.40246978574605" Properties=species:S:1:pos:R:3:initial_magmoms:R:1 pbc="T T T"
Si      -1.35563751      -1.35547461      -1.35759102       0.00000000
Si      -1.35751086       1.35703845       1.35679976       0.00000000
Si       1.35697329      -1.35702216       1.35765983       0.00000000
Si       1.35894438       1.35682668      -1.35752222       0.00000000
Si       2.71300176       0.00161271      -2.71466601       0.00000000
Si      -2.71454931      -0.00027693       2.71377154       0.00000000
Si      -0.00048870       2.71515204       2.71318670       0.00000000
Si       2.71451673      -2.71428867      -0.00013761       0.00000000
Si       2.71432125       2.71513575      -0.00020641       0.00000000
Si      -2.71396287      -0.00461007      -2.71573248       0.00000000
