10
Lattice="16.28999089631971 0.0 0.0 0.0 16.28999089631971 0.0 0.0 0.0 34.40246978574605" Properties=species:S:1:pos:R:3:initial_magmoms:R:1 pbc="T T T"
Si       1.37398005      -1.33872849      -1.34279795       0.00000000
Si      -1.34296389       1.39131261      -1.32356696       0.00000000
Si       1.86782769       1.01789694       1.04273944       0.00000000
Si      -0.97635744      -1.71527184       1.33209878       0.00000000
Si      -2.41502508      -0.09951561       2.15314858       0.00000000
Si       2.50429428      -2.66155794       0.22667800       0.00000000
Si       3.36834846      -0.79558731       1.35528605       0.00000000
Si      -2.69275329       0.01449810      -2.68893294       0.00000000
Si      -2.72070693      -2.66607027       0.09622376       0.00000000
Si       0.02736720      -2.69982315      -2.68903615       0.00000000
