10
Lattice="16.28999089631971 0.0 0.0 0.0 16.28999089631971 0.0 0.0 0.0 34.40246978574605" Properties=species:S:1:pos:R:3:initial_magmoms:R:1 pbc="T T T"
Si      -1.13031423       1.32282945      -1.56947595       0.00000000
Si       0.86405418       1.86597063       1.12860805       0.00000000
Si      -1.70895132      -0.87426801       1.55430445       0.00000000
Si       1.56636495      -1.35954711      -1.54783679       0.00000000
Si      -2.50429428       2.66155794      -0.22667800       0.00000000
Si      -2.57720832      -2.64616389       0.03278557       0.00000000
Si       1.63781289      -2.98273158       1.50965002       0.00000000
Si      -3.48065172       0.94628610       1.10542078       0.00000000
Si       2.74771575       2.64212397      -0.03835878       0.00000000
Si      -0.63646659       3.67945488       0.81606144       0.00000000
