10
Lattice="16.28999089631971 0.0 0.0 0.0 16.28999089631971 0.0 0.0 0.0 34.40246978574605" Properties=species:S:1:pos:R:3:initial_magmoms:R:1 pbc="T T T"
Si       0.13691745       0.58249782       2.26526530       0.00000000
Si      -1.20259296      -2.02800726       0.15133655       0.00000000
Si      -1.77870510       1.46297232      -0.64459944       0.00000000
Si       2.39171409      -0.25179453      -0.30962240       0.00000000
Si       2.05820892      -0.96933645       2.15400077       0.00000000
Si      -1.13319756       1.20361923      -3.05838127       0.00000000
Si       2.51002836       1.92749796      -1.49809079       0.00000000
Si      -2.25429165      -2.14738038      -1.95547188       0.00000000
Si      -2.90843289      -1.48656024       1.82584330       0.00000000
Si      -3.67261308       0.49700790       0.80467422       0.00000000
