10
Lattice="16.28999089631971 0.0 0.0 0.0 16.28999089631971 0.0 0.0 0.0 34.40246978574605" Properties=species:S:1:pos:R:3:initial_magmoms:R:1 pbc="T T T"
Si      -1.35391077       1.35729909      -1.35580209       0.00000000
Si      -1.35602847      -1.35824391       1.35776303       0.00000000
Si       1.35865116       1.35685926       1.35769423       0.00000000
Si       1.35915615      -1.36058967      -1.35996479       0.00000000
Si      -2.69778690      -0.00609246      -2.72072772       0.00000000
Si      -2.71251306       2.71350675      -0.00010321       0.00000000
Si      -2.71329498      -2.71458189      -0.00048163       0.00000000
Si      -2.71393029      -0.00167787       2.71445959       0.00000000
Si       0.00182448       2.71505430       2.71470041       0.00000000
Si       0.00184077      -2.71624347       2.71473481       0.00000000
