10
Lattice="16.28999089631971 0.0 0.0 0.0 16.28999089631971 0.0 0.0 0.0 34.40246978574605" Properties=species:S:1:pos:R:3:initial_magmoms:R:1 pbc="T T T"
Si      -0.82096387      -0.11341261       2.19494760       0.00000000
Si      -1.84989959       0.47242792      -1.40850671       0.00000000
Si       0.68315373      -2.29913706      -0.16145088       0.00000000
Si       1.88589330       1.46908921      -0.54097914       0.00000000
Si       0.01296358      -2.38643517      -2.41099523       0.00000000
Si       1.06083738      -1.15709403       3.21195398       0.00000000
Si       3.08213316      -0.84995681       1.96985212       0.00000000
Si      -1.40615999      -0.75802909      -3.40667207       0.00000000
Si      -1.78162820       2.86582639      -1.73715368       0.00000000
Si       3.04300458      -2.38547406       0.16286138       0.00000000
