10
Lattice="16.28999089631971 0.0 0.0 0.0 16.28999089631971 0.0 0.0 0.0 34.40246978574605" Properties=species:S:1:pos:R:3:initial_magmoms:R:1 pbc="T T T"
Si       1.59133752      -0.11373678       1.72342709       0.00000000
Si      -0.34376787       2.37633633       0.00825660       0.00000000
Si       1.22054454      -0.77613705      -1.94724968       0.00000000
Si      -1.88589330      -1.46908921       0.54097914       0.00000000
Si      -1.74421428       2.54045808      -1.86609421       0.00000000
Si       1.19623986      -2.31904603       2.51083126       0.00000000
Si       3.53512548       0.65265885       0.44558104       0.00000000
Si       0.88433523       1.61981244       3.23792786       0.00000000
Si       1.79084115      -3.03602336      -1.44707190       0.00000000
Si       3.28263048       0.44714421      -1.92406241       0.00000000
