10
Lattice="16.28999089631971 0.0 0.0 0.0 16.28999089631971 0.0 0.0 0.0 34.40246978574605" Properties=species:S:1:pos:R:3:initial_magmoms:R:1 pbc="T T T"
Si      -1.35682668       1.35819504       1.35700618       0.00000000
Si      -1.35865116      -1.35685926      -1.35769423       0.00000000
Si       1.35826020      -1.35830907       1.35755662       0.00000000
Si       1.35920502       1.35816246      -1.35796945       0.00000000
Si      -2.71256193       0.00043983      -2.71349632       0.00000000
Si       0.00021177      -2.71498914       2.71342752       0.00000000
Si       0.00089595       2.71402803       2.71504443       0.00000000
Si      -2.71433754       2.71485882      -0.00020641       0.00000000
Si       2.71337643      -0.00045612       2.71611091       0.00000000
Si      -2.71467963      -2.71510317       0.00006880       0.00000000
