10
Lattice="16.28999089631971 0.0 0.0 0.0 16.28999089631971 0.0 0.0 0.0 34.40246978574605" Properties=species:S:1:pos:R:3:initial_magmoms:R:1 pbc="T T T"
Si      -1.55457099      -1.81556937       0.07902252       0.00000000
Si      -0.19769544       0.03797199       2.45472080       0.00000000
Si      -1.06347636       1.73284875      -1.45525969       0.00000000
Si       2.21164443      -0.65381544      -1.35831347       0.00000000
Si      -3.18075282      -0.88953174      -1.43042109       0.00000000
Si       1.90700514      -0.97911045       2.96167588       0.00000000
Si      -2.02352751       0.39838824      -3.12357399       0.00000000
Si      -0.14476923       2.34823608       3.01823357       0.00000000
Si      -3.68856099       1.06683210      -0.09832231       0.00000000
Si       1.05582006      -2.00955069      -3.11284041       0.00000000
