10
Lattice="16.28999089631971 0.0 0.0 0.0 16.28999089631971 0.0 0.0 0.0 34.40246978574605" Properties=species:S:1:pos:R:3:initial_magmoms:R:1 pbc="T T T"
Si       2.22555609      -0.01602936      -0.58002596       0.00000000
Si      -1.43335710       0.58281289      -1.72074370       0.00000000
Si      -0.22530699       1.61376463       1.72504401       0.00000000
Si      -0.16983954      -2.13710139       1.09258865       0.00000000
Si      -3.45465288       0.27567567      -0.47864183       0.00000000
Si       3.18997296       0.61165270       1.45945679       0.00000000
Si      -1.79538606       0.59240770       3.14621083       0.00000000
Si       2.91797883      -2.25175041      -0.94630927       0.00000000
Si       2.12566581      -2.95468020       1.14990320       0.00000000
Si       1.77121170       1.95590676       2.75852918       0.00000000
