10
Lattice="16.28999089631971 0.0 0.0 0.0 16.28999089631971 0.0 0.0 0.0 34.40246978574605" Properties=species:S:1:pos:R:3:initial_magmoms:R:1 pbc="T T T"
Si       1.05875226      -0.14327055      -2.09903346       0.00000000
Si      -0.39646602       2.31723362       0.25172301       0.00000000
Si       1.09796229      -0.28193103       2.09366668       0.00000000
Si      -2.16507132      -1.02379392       0.14989164       0.00000000
Si      -2.21710158       1.99493434       1.74080035       0.00000000
Si       2.53405611      -2.08844316       1.78631484       0.00000000
Si      -0.21569589      -1.58104224      -3.46412423       0.00000000
Si       0.84861126       1.98529066      -3.15457063       0.00000000
Si      -0.57015000       3.32954472      -1.85549824       0.00000000
Si       3.35274264      -0.59781042      -2.00305052       0.00000000
