10
Lattice="16.28999089631971 0.0 0.0 0.0 16.28999089631971 0.0 0.0 0.0 34.40246978574605" Properties=species:S:1:pos:R:3:initial_magmoms:R:1 pbc="T T T"
Si       1.35754344      -1.35741801      -1.35676536       0.00000000
Si       1.35798327       1.35765747       1.35700618       0.00000000
Si      -1.35738054      -1.35732353       1.35800385       0.00000000
Si      -1.35808101       1.35855342      -1.35697178       0.00000000
Si       2.71313208      -2.71415159      -0.00003440       0.00000000
Si      -0.00019548      -2.71365869       2.71387475       0.00000000
Si       0.00136836      -2.71325860      -2.71435638       0.00000000
Si       2.71301805       0.00014661       2.71466601       0.00000000
Si      -2.71492398       0.00136836      -2.71404676       0.00000000
Si       2.71528236       0.00061902      -2.71421877       0.00000000
