10
Lattice="16.28999089631971 0.0 0.0 0.0 16.28999089631971 0.0 0.0 0.0 34.40246978574605" Properties=species:S:1:pos:R:3:initial_magmoms:R:1 pbc="T T T"
Si       1.35718506      -1.35633516       1.35587090       0.00000000
Si       1.35738054       1.35732353      -1.35800385       0.00000000
Si      -1.35827649      -1.35741805      -1.35796945       0.00000000
Si      -1.35728280       1.35693256       1.36306102       0.00000000
Si      -0.02028105      -2.70909120       2.70998727       0.00000000
Si       2.71492398      -0.00009448      -2.71476921       0.00000000
Si      -0.00034209      -2.71436916      -2.71535406       0.00000000
Si       2.71536381       2.71498100      -0.00099767       0.00000000
Si      -2.71502172      -2.71565607      -0.00003440       0.00000000
Si       2.71437012      -2.71638912      -0.00233937       0.00000000
