10
Lattice="16.28999089631971 0.0 0.0 0.0 16.28999089631971 0.0 0.0 0.0 34.40246978574605" Properties=species:S:1:pos:R:3:initial_magmoms:R:1 pbc="T T T"
Si       1.50623856       0.69827085      -1.69143277       0.00000000
Si       1.21637430       1.26682443       1.61602252       0.00000000
Si      -2.10657393       0.11121183      -1.18506254       0.00000000
Si      -0.81072072      -1.51700625       1.71334716       0.00000000
Si      -1.93246641       0.35640891       2.79382613       0.00000000
Si      -2.72639214      -2.09742709      -0.64115919       0.00000000
Si      -1.81415214       2.53570140       1.60535775       0.00000000
Si       0.42702606       3.42867033       1.36650127       0.00000000
Si       3.43230300       0.55112328       1.34042418       0.00000000
Si      -3.11417559       2.04604029      -0.31980554       0.00000000
