10
Lattice="16.28999089631971 0.0 0.0 0.0 16.28999089631971 0.0 0.0 0.0 34.40246978574605" Properties=species:S:1:pos:R:3:initial_magmoms:R:1 pbc="T T T"
Si      -1.35829278      -1.34809524      -1.33911000       0.00000000
Si      -1.35405738       1.35521397       1.35714379       0.00000000
Si       1.35834165      -1.35808101       1.35652454       0.00000000
Si       1.35197226       1.37469681      -1.37792289       0.00000000
Si       0.13291011      -2.48429016      -2.70693233       0.00000000
Si      -2.64754854      -0.00360009      -2.75543295       0.00000000
Si      -2.71319724       2.71107954      -0.00323383       0.00000000
Si       2.71472850       2.71215468      -0.00027522       0.00000000
Si      -2.71300176      -0.00161271       2.71466601       0.00000000
Si       0.00131949       2.71352304       2.71445959       0.00000000
