10
Lattice="16.28999089631971 0.0 0.0 0.0 16.28999089631971 0.0 0.0 0.0 34.40246978574605" Properties=species:S:1:pos:R:3:initial_magmoms:R:1 pbc="T T T"
Si      -1.35283563       1.35610992      -1.35920794       0.00000000
Si      -1.38230424      -1.32424668       1.36677649       0.00000000
Si       1.36083402      -1.36081773      -1.35941435       0.00000000
Si       1.34198649       1.36295172       1.39195911       0.00000000
Si       0.09345573      -2.59517619       2.61262822       0.00000000
Si      -2.71166598       2.70971118       0.00240817       0.00000000
Si       2.71181259       2.71564074       0.00426591       0.00000000
Si      -2.71277370      -0.00265527      -2.71559487       0.00000000
Si       0.00236205       2.71230129      -2.71611091       0.00000000
Si      -2.71181259      -2.71886616       0.00464434       0.00000000
