10
Lattice="16.28999089631971 0.0 0.0 0.0 16.28999089631971 0.0 0.0 0.0 34.40246978574605" Properties=species:S:1:pos:R:3:initial_magmoms:R:1 pbc="T T T"
Si       1.47575997      -1.27092951       1.24585174       0.00000000
Si       1.38230424       1.32424668      -1.36677649       0.00000000
Si      -1.32950835      -1.39461948      -1.36213215       0.00000000
Si      -1.56636495       1.35954711       1.54783679       0.00000000
Si       0.07144794      -1.62318447       3.05748681       0.00000000
Si      -2.69667918       2.68237656      -0.02163917       0.00000000
Si       0.02946861       2.68035660      -2.72598442       0.00000000
Si       2.72429073       2.68719840       0.02518262       0.00000000
Si      -2.68822467      -0.03613122      -2.72478034       0.00000000
Si      -2.68910433      -2.74221787       0.04031972       0.00000000
