10
Lattice="16.28999089631971 0.0 0.0 0.0 16.28999089631971 0.0 0.0 0.0 34.40246978574605" Properties=species:S:1:pos:R:3:initial_magmoms:R:1 pbc="T T T"
Si      -1.67389524      -0.93851577       1.41419829       0.00000000
Si      -1.17801135       0.21466962      -2.08682058       0.00000000
Si       0.98321553       1.88615394       1.30958720       0.00000000
Si       1.84906161      -1.75181031      -0.07000907       0.00000000
Si      -0.38463948      -2.28301092       2.83052124       0.00000000
Si       2.32562556       0.43978113       2.79170835       0.00000000
Si      -0.11261277      -1.53766197      -3.45204895       0.00000000
Si      -2.48572368      -2.88266211       0.31130713       0.00000000
Si       1.10656341      -3.41920584       1.46269892       0.00000000
Si       3.59743473      -0.96044211       1.36182738       0.00000000
