10
Lattice="16.28999089631971 0.0 0.0 0.0 16.28999089631971 0.0 0.0 0.0 34.40246978574605" Properties=species:S:1:pos:R:3:initial_magmoms:R:1 pbc="T T T"
Si      -0.74249820      -1.66739553       1.53270799       0.00000000
Si       1.74837312       0.79136820       1.43183645       0.00000000
Si      -1.84906161       1.75181031       0.07000907       0.00000000
Si      -2.07998865      -1.96514415      -2.19357150       0.00000000
Si      -2.41349382      -2.68268607       0.27005167       0.00000000
Si       0.47656395       2.19159144       2.86171742       0.00000000
Si       1.06885206      -1.05472863      -3.37137512       0.00000000
Si      -2.23370109      -0.53120061       2.90053031       0.00000000
Si       0.27950382       1.10711727      -3.62089637       0.00000000
Si      -3.52295685       0.81329454       1.48420736       0.00000000
