10
Lattice="16.28999089631971 0.0 0.0 0.0 16.28999089631971 0.0 0.0 0.0 34.40246978574605" Properties=species:S:1:pos:R:3:initial_magmoms:R:1 pbc="T T T"
Si       1.26431577       1.93984578       0.07427497       0.00000000
Si      -1.29836187       0.21559815       1.93978434       0.00000000
Si      -1.30197825      -0.38437884      -1.92557611       0.00000000
Si       1.22974839      -2.45428398       2.08479083       0.00000000
Si      -3.18563982      -1.16053218      -0.75860929       0.00000000
Si       2.78285328       1.35106002       1.83007481       0.00000000
Si      -0.28983168       3.49941780       1.01786644       0.00000000
Si      -0.36636210      -1.38171780       3.45717493       0.00000000
Si       3.17632194      -1.03130361       1.75917128       0.00000000
Si       0.24096168      -1.69885152      -3.40987150       0.00000000
