10
Lattice="16.28999089631971 0.0 0.0 0.0 16.28999089631971 0.0 0.0 0.0 34.40246978574605" Properties=species:S:1:pos:R:3:initial_magmoms:R:1 pbc="T T T"
Si      -0.04751793      -0.92895354       2.11117754       0.00000000
Si       1.12963005      -1.09056663      -1.71210867       0.00000000
Si       0.51838038       2.27928051      -0.01107760       0.00000000
Si      -2.30446485      -0.00967626      -0.48084359       0.00000000
Si      -1.97141580       0.90258003      -2.59621824       0.00000000
Si       1.02113865       0.84211155       3.19716091       0.00000000
Si      -0.19381842       2.64176559       2.23285915       0.00000000
Si      -0.94916943       2.86519923      -1.74004349       0.00000000
Si       1.78360839      -2.33668647       1.97896878       0.00000000
Si      -0.18699291      -0.35108208      -3.60971556       0.00000000
