10
Lattice="16.28999089631971 0.0 0.0 0.0 16.28999089631971 0.0 0.0 0.0 34.40246978574605" Properties=species:S:1:pos:R:3:initial_magmoms:R:1 pbc="T T T"
Si       0.92598876       0.99732267       1.95609112       0.00000000
Si       1.72981881      -0.09793548      -1.73416067       0.00000000
Si      -1.35167904      -1.95080895      -0.70466618       0.00000000
Si      -1.96050150       1.49064903      -0.42005439       0.00000000
Si      -0.40234671      -0.81503757      -2.57316857       0.00000000
Si      -1.48427964       1.30272759      -2.72939027       0.00000000
Si       1.70035020      -0.87187338       3.16202087       0.00000000
Si      -0.95055408       2.02988061       2.94832771       0.00000000
Si      -1.40089113       3.39509664       0.92948645       0.00000000
Si       2.10127968       2.09904795      -2.59563339       0.00000000
