10
Lattice="16.28999089631971 0.0 0.0 0.0 16.28999089631971 0.0 0.0 0.0 34.40246978574605" Properties=species:S:1:pos:R:3:initial_magmoms:R:1 pbc="T T T"
Si       1.35711990       1.35490446       1.35597410       0.00000000
Si      -1.35759231       1.35692442      -1.35704058       0.00000000
Si       1.35702216      -1.35799956      -1.35666215       0.00000000
Si      -1.35979146      -1.35884664       1.35934555       0.00000000
Si       2.70568755       0.00586440       2.71428758       0.00000000
Si       2.71326240       2.71446551       0.00027522       0.00000000
Si       2.71443528      -0.00102627      -2.71425318       0.00000000
Si      -2.71396287      -0.00022806      -2.71473481       0.00000000
Si      -0.00006516       2.71495842       2.71418437       0.00000000
Si       0.00006516      -2.71567332      -2.71363393       0.00000000
