10
Lattice="16.28999089631971 0.0 0.0 0.0 16.28999089631971 0.0 0.0 0.0 34.40246978574605" Properties=species:S:1:pos:R:3:initial_magmoms:R:1 pbc="T T T"
Si       1.29872025      -1.31531976       1.39705068       0.00000000
Si      -1.33929864      -1.35858600      -1.35480442       0.00000000
Si       1.37746611       1.35275604      -1.35411637       0.00000000
Si      -1.43953101       1.17107181       1.49351526       0.00000000
Si       2.35911780       0.34384932       2.73613316       0.00000000
Si       0.10593387       1.56087915       3.38695945       0.00000000
Si      -2.69474067      -0.00656487      -2.71002167       0.00000000
Si      -2.68433136      -2.72391606       0.01193766       0.00000000
Si      -2.69659773       2.71842537       0.05552562       0.00000000
Si       0.02028105       2.70909120      -2.70998727       0.00000000
