10
Lattice="16.28999089631971 0.0 0.0 0.0 16.28999089631971 0.0 0.0 0.0 34.40246978574605" Properties=species:S:1:pos:R:3:initial_magmoms:R:1 pbc="T T T"
Si      -1.06039755      -1.65916908      -1.33908248       0.00000000
Si       0.68813847      -1.02477132       2.05417262       0.00000000
Si       1.81286523       1.10617719      -1.19627775       0.00000000
Si      -2.25318393       1.21702983       0.65082629       0.00000000
Si       0.38683863       2.34578022      -2.72361065       0.00000000
Si      -2.35911780      -0.34384932      -2.73613316       0.00000000
Si      -2.29912173      -2.89812132       0.38781926       0.00000000
Si      -0.17311383      -3.28772925       1.73199331       0.00000000
Si      -0.67403133       0.00100998       3.82731131       0.00000000
Si      -3.79864881       0.82722249      -1.24261790       0.00000000
