10
Lattice="16.28999089631971 0.0 0.0 0.0 16.28999089631971 0.0 0.0 0.0 34.40246978574605" Properties=species:S:1:pos:R:3:initial_magmoms:R:1 pbc="T T T"
Si      -1.30478781       1.37767788      -1.29558742       0.00000000
Si       1.32638507       1.37135736       1.34410869       0.00000000
Si      -1.38240966      -1.34501643       1.34121888       0.00000000
Si       1.55915777      -1.21072167      -1.34794456       0.00000000
Si      -2.60916069       0.02619432      -2.64936251       0.00000000
Si       0.22903691      -2.62764216      -2.62763596       0.00000000
Si       0.07198290       2.53317645      -2.78957196       0.00000000
Si       2.68824047       0.01412343       2.70073644       0.00000000
Si      -0.02556084      -2.70198972       2.70187172       0.00000000
Si       2.71195871      -2.71119357      -0.00844925       0.00000000
