10
Lattice="16.28999089631971 0.0 0.0 0.0 16.28999089631971 0.0 0.0 0.0 34.40246978574605" Properties=species:S:1:pos:R:3:initial_magmoms:R:1 pbc="T T T"
Si      -0.77186907       0.16759152      -2.22480896       0.00000000
Si       0.20792556       2.35403532      -0.03756752       0.00000000
Si       2.21063445      -0.69413319      -0.62763901       0.00000000
Si      -1.59055560      -1.32304122       1.56455640       0.00000000
Si       0.17917371       2.32994241      -2.51430591       0.00000000
Si      -0.09989028      -1.93769550      -2.94110319       0.00000000
Si      -3.02664942       0.48347091       1.87190823       0.00000000
Si       1.91161521      -2.61908991      -1.96056345       0.00000000
Si       2.31635655       2.90033906       0.86941970       0.00000000
Si       1.03641867       0.27365571       3.65990879       0.00000000
