10
Lattice="16.28999089631971 0.0 0.0 0.0 16.28999089631971 0.0 0.0 0.0 34.40246978574605" Properties=species:S:1:pos:R:3:initial_magmoms:R:1 pbc="T T T"
Si       0.97731855       1.68438504       1.42707170       0.00000000
Si      -1.76124222      -1.00133001       1.48949502       0.00000000
Si      -0.06255360       1.56750755      -1.98708777       0.00000000
Si       1.91389581      -1.93427460       0.14541932       0.00000000
Si      -2.14917228      -1.72445940      -1.64258124       0.00000000
Si       2.24958384       0.33868539       2.91871546       0.00000000
Si       1.08540270       0.14610501      -3.55205699       0.00000000
Si      -0.48065274      -2.37167739       2.93073225       0.00000000
Si       2.90237301       2.55796073       0.25997277       0.00000000
Si       2.16738450       2.67647048      -2.00232807       0.00000000
