10
Lattice="16.28999089631971 0.0 0.0 0.0 16.28999089631971 0.0 0.0 0.0 34.40246978574605" Properties=species:S:1:pos:R:3:initial_magmoms:R:1 pbc="T T T"
Si      -1.36102950      -1.35049706      -1.35377923       0.00000000
Si       1.35881409      -1.35507718       1.36147850       0.00000000
Si      -1.35451350       1.35987291       1.36123769       0.00000000
Si       1.37753878       1.36611198      -1.36537974       0.00000000
Si      -0.00952965      -2.70000953      -2.71408804       0.00000000
Si      -2.70917361       2.71225242       0.00161692       0.00000000
Si      -2.71381626      -2.70820340       0.00333704       0.00000000
Si       2.71636794      -2.71056545      -0.00172012       0.00000000
Si       0.00156384      -2.71240622       2.71800305       0.00000000
Si      -2.71225242       0.00183588       2.71869110       0.00000000
