10
Lattice="16.28999089631971 0.0 0.0 0.0 16.28999089631971 0.0 0.0 0.0 34.40246978574605" Properties=species:S:1:pos:R:3:initial_magmoms:R:1 pbc="T T T"
Si      -1.35788553       1.35583951       1.35611171       0.00000000
Si       1.35914728       1.35623047      -1.35858869       0.00000000
Si      -1.35777150      -1.35845870      -1.35858869       0.00000000
Si       1.36245056      -1.36161164       1.36240737       0.00000000
Si      -2.70260874      -0.02109229       2.72195933       0.00000000
Si      -2.71292031       2.71335037      -0.00154811       0.00000000
Si      -2.71336014      -0.00172511      -2.71531965       0.00000000
Si       0.00135207       2.71330150      -2.71549167       0.00000000
Si       2.71610730       2.71405084      -0.00086006       0.00000000
Si      -2.71391400      -2.71801975      -0.00288981       0.00000000
