10
Lattice="16.28999089631971 0.0 0.0 0.0 16.28999089631971 0.0 0.0 0.0 34.40246978574605" Properties=species:S:1:pos:R:3:initial_magmoms:R:1 pbc="T T T"
Si       1.45291473      -1.17537237       1.35638693       0.00000000
Si       1.37039625       1.32888933      -1.34795832       0.00000000
Si      -1.34439741      -1.38601836      -1.34761430       0.00000000
Si      -1.26786699       1.39848021       1.47084402       0.00000000
Si      -0.38072988      -1.99904364       2.60444043       0.00000000
Si      -2.27528946      -0.39640086       2.65717945       0.00000000
Si       0.58898124       2.32398027       2.95187117       0.00000000
Si       0.01769094       2.68656309      -2.70338199       0.00000000
Si      -2.69943219      -0.02850750      -2.70527413       0.00000000
Si      -2.71827972       2.69526195       0.04609934       0.00000000
