10
Lattice="16.28999089631971 0.0 0.0 0.0 16.28999089631971 0.0 0.0 0.0 34.40246978574605" Properties=species:S:1:pos:R:3:initial_magmoms:R:1 pbc="T T T"
Si      -1.42602660       1.23960303      -1.52733290       0.00000000
Si       0.88236414       2.00350954       1.05887421       0.00000000
Si      -1.81286523      -1.10617719       1.19627775       0.00000000
Si       1.27379655      -1.46573007      -1.49602664       0.00000000
Si      -2.70371646       2.73968722      -0.27879777       0.00000000
Si      -0.08130339       2.61653482      -2.89318052       0.00000000
Si      -1.01219544       3.60615232       1.11161322       0.00000000
Si       2.63903270      -0.10091632      -2.88688487       0.00000000
Si       2.71600875       2.82718081      -0.18917929       0.00000000
Si       2.10233853      -3.31998819      -0.09075377       0.00000000
