10
Lattice="16.28999089631971 0.0 0.0 0.0 16.28999089631971 0.0 0.0 0.0 34.40246978574605" Properties=species:S:1:pos:R:3:initial_magmoms:R:1 pbc="T T T"
Si       1.35466011      -1.35237951       1.35962077       0.00000000
Si       1.33641531       1.36435266      -1.37722108       0.00000000
Si      -1.36187658       1.36337526       1.35886391       0.00000000
Si      -1.35083196      -1.34724816      -1.38627926       0.00000000
Si      -2.58730812       0.23716611      -2.70459296       0.00000000
Si       2.70917361      -2.71225242      -0.00161692       0.00000000
Si      -0.00307881      -2.71041654       2.71707418       0.00000000
Si       2.71163340       0.00461007       2.71690217       0.00000000
Si       2.71347417       2.71940373      -0.00092887       0.00000000
Si      -2.72023452      -2.71350512       0.00165132       0.00000000
