10
Lattice="16.28999089631971 0.0 0.0 0.0 16.28999089631971 0.0 0.0 0.0 34.40246978574605" Properties=species:S:1:pos:R:3:initial_magmoms:R:1 pbc="T T T"
Si      -1.35654975      -1.35782037       1.35686857       0.00000000
Si      -1.35749457       1.35747828      -1.35762542       0.00000000
Si       1.35772263      -1.35786924      -1.35707498       0.00000000
Si       1.36057338       1.35725022       1.35876071       0.00000000
Si       2.71327869      -0.00042354       2.71418437       0.00000000
Si       0.00074934      -2.71485882      -2.71435638       0.00000000
Si      -0.00151497      -2.71533123       2.71452840       0.00000000
Si      -2.71453302      -2.71547784      -0.00013761       0.00000000
Si      -2.71502172       2.71529865       0.00017201       0.00000000
Si       2.71551784      -2.71494027      -0.00017201       0.00000000
