10
Lattice="16.28999089631971 0.0 0.0 0.0 16.28999089631971 0.0 0.0 0.0 34.40246978574605" Properties=species:S:1:pos:R:3:initial_magmoms:R:1 pbc="T T T"
Si       0.80215138       1.74366531      -1.49585462       0.00000000
Si      -0.37190070       1.03882959       2.26327095       0.00000000
Si       1.73651956      -1.82576691       0.09594854       0.00000000
Si      -1.85684823      -0.92550006      -1.48102715       0.00000000
Si      -2.31847425      -0.38415078       2.58889051       0.00000000
Si       2.13979317       0.38077875      -2.92789263       0.00000000
Si      -0.58898124      -2.32398027      -2.95187117       0.00000000
Si       2.15758511       3.21380523      -0.26352307       0.00000000
Si       3.46707305      -0.96088194      -1.51357191       0.00000000
Si       0.86393349      -3.49935264      -1.59548423       0.00000000
