10
Lattice="16.28999089631971 0.0 0.0 0.0 16.28999089631971 0.0 0.0 0.0 34.40246978574605" Properties=species:S:1:pos:R:3:initial_magmoms:R:1 pbc="T T T"
Si      -0.90458370       2.07933705       0.70139795       0.00000000
Si       2.22545835       0.78698619      -0.27143564       0.00000000
Si       0.39345237      -1.61666847       1.77396435       0.00000000
Si      -1.50024384      -0.43359093      -1.93070209       0.00000000
Si       2.78801721      -0.66297042      -2.04326703       0.00000000
Si      -0.09081675       3.24700425      -1.41418312       0.00000000
Si       0.21411576       2.30063670       2.91096661       0.00000000
Si      -1.51045767      -1.48240629       3.18395036       0.00000000
Si      -3.15247338       1.65327210       1.45233548       0.00000000
Si       3.43007080       0.35750034       1.76085700       0.00000000
