10
Lattice="16.28999089631971 0.0 0.0 0.0 16.28999089631971 0.0 0.0 0.0 34.40246978574605" Properties=species:S:1:pos:R:3:initial_magmoms:R:1 pbc="T T T"
Si       0.77436144      -1.86919605       1.20592975       0.00000000
Si      -1.87654284       1.03255794       0.99223659       0.00000000
Si      -0.92598876      -0.99732267      -1.95609112       0.00000000
Si       1.59886350       1.83765861       0.13984612       0.00000000
Si       2.07873432      -0.51771249       2.55970485       0.00000000
Si      -2.32687989       2.39777397      -1.02660467       0.00000000
Si      -0.63022752       2.37206835       2.54362857       0.00000000
Si       3.45550503       0.63778608       1.06572030       0.00000000
Si      -2.88649026       0.49332636      -2.37614551       0.00000000
Si       2.58494607      -2.85316092      -0.04682179       0.00000000
