10
Lattice="16.28999089631971 0.0 0.0 0.0 16.28999089631971 0.0 0.0 0.0 34.40246978574605" Properties=species:S:1:pos:R:3:initial_magmoms:R:1 pbc="T T T"
Si      -1.36256076      -1.34063442      -1.39784193       0.00000000
Si       1.36523615       1.36481375      -1.39085823       0.00000000
Si      -1.27379655       1.46573007       1.49602664       0.00000000
Si       0.82854198      -1.85425812       1.40527287       0.00000000
Si       2.70286516      -2.69474067      -0.01840533       0.00000000
Si      -2.69982315       2.70533310      -0.03130627       0.00000000
Si      -2.70326034      -2.70347211      -0.01307295       0.00000000
Si       2.72739627       2.72526717      -0.00123849       0.00000000
Si       0.00558747      -2.70352098      -2.75178629       0.00000000
Si      -2.71112841       0.00840564      -2.75615541       0.00000000
