10
Lattice="16.28999089631971 0.0 0.0 0.0 16.28999089631971 0.0 0.0 0.0 34.40246978574605" Properties=species:S:1:pos:R:3:initial_magmoms:R:1 pbc="T T T"
Si       2.11259864       0.02059056      -0.98986282       0.00000000
Si       0.05075964      -2.32401285       0.31928950       0.00000000
Si      -0.52110081       1.08885618       2.03549207       0.00000000
Si       0.37014138       1.61251452      -2.09201536       0.00000000
Si      -1.95335019       1.20528081      -2.72859901       0.00000000
Si       3.03520560       1.88162532       0.01575634       0.00000000
Si      -2.75545350       0.38333628       2.51017761       0.00000000
Si      -2.14420383      -2.98651086       0.80914654       0.00000000
Si       0.25808247      -3.20603490      -2.23856996       0.00000000
Si      -0.74727117       3.46906043       1.76106341       0.00000000
