10
Lattice="16.28999089631971 0.0 0.0 0.0 16.28999089631971 0.0 0.0 0.0 34.40246978574605" Properties=species:S:1:pos:R:3:initial_magmoms:R:1 pbc="T T T"
Si       2.26000359      -0.40907448      -0.37956266       0.00000000
Si      -0.58124349      -1.85437215       1.31520715       0.00000000
Si      -1.19702178       0.44761662      -2.00680039       0.00000000
Si      -0.30362931       2.08803591       1.10160210       0.00000000
Si       3.23336042       0.07579737       1.75862084       0.00000000
Si       3.02947478       1.32768387      -1.77699176       0.00000000
Si      -3.43137447      -0.25790328      -1.53211485       0.00000000
Si      -2.92861620      -1.69507224       1.67612367       0.00000000
Si      -1.99269054       3.26233055      -0.07179799       0.00000000
Si      -0.03991050      -3.85369272       0.19227551       0.00000000
