10
Lattice="16.28999089631971 0.0 0.0 0.0 16.28999089631971 0.0 0.0 0.0 34.40246978574605" Properties=species:S:1:pos:R:3:initial_magmoms:R:1 pbc="T T T"
Si      -2.14337304      -0.01389537       0.93433720       0.00000000
Si       1.14101676      -1.43435079       1.53080755       0.00000000
Si       0.61817292       2.30254982       0.16953547       0.00000000
Si       0.33603012      -0.31081320      -2.36059559       0.00000000
Si       2.35315959       1.76252166       1.67141053       0.00000000
Si      -3.49962957       1.13457636      -0.62038008       0.00000000
Si       1.95942703      -0.00086337       3.21986656       0.00000000
Si       2.16501660       1.11455921      -2.88279097       0.00000000
Si       1.07136072       3.06021401      -2.07488292       0.00000000
Si       2.67309193      -2.76418494       0.36841625       0.00000000
