10
Lattice="16.28999089631971 0.0 0.0 0.0 16.28999089631971 0.0 0.0 0.0 34.40246978574605" Properties=species:S:1:pos:R:3:initial_magmoms:R:1 pbc="T T T"
Si      -2.13740927       0.60219243       0.77894116       0.00000000
Si       0.77208084       1.79426205      -1.39956206       0.00000000
Si       1.45749888      -0.12963582       1.92536970       0.00000000
Si      -0.14991687      -2.37716712      -0.67219023       0.00000000
Si      -1.38331585       1.83598074       2.66801623       0.00000000
Si       1.47608577       0.65673135      -3.33642219       0.00000000
Si       3.57686046      -0.50657013       1.00310777       0.00000000
Si      -3.32616455      -1.42071606       1.14226584       0.00000000
Si      -2.41195393      -3.01027797      -0.29806316       0.00000000
Si       0.45527292      -1.33183782       3.69603141       0.00000000
