10
Lattice="16.28999089631971 0.0 0.0 0.0 16.28999089631971 0.0 0.0 0.0 34.40246978574605" Properties=species:S:1:pos:R:3:initial_magmoms:R:1 pbc="T T T"
Si      -1.35776498      -1.35560493       1.35566448       0.00000000
Si       1.35790182      -1.35656604      -1.35669656       0.00000000
Si      -1.35719158       1.35817875      -1.35679976       0.00000000
Si       1.35827649       1.35848826       1.36034322       0.00000000
Si      -2.70556533      -0.00754227       2.71342752       0.00000000
Si      -2.71323701       0.00302994      -2.71408116       0.00000000
Si      -2.71373718      -2.71373481      -0.00020641       0.00000000
Si       0.00063531      -2.71290402      -2.71494123       0.00000000
Si       2.71393029       0.00167787      -2.71445959       0.00000000
Si       0.00141723       2.71518462      -2.71456280       0.00000000
