10
Lattice="16.28999089631971 0.0 0.0 0.0 16.28999089631971 0.0 0.0 0.0 34.40246978574605" Properties=species:S:1:pos:R:3:initial_magmoms:R:1 pbc="T T T"
Si       1.35543372       1.47013992       1.23233156       0.00000000
Si       1.33764178      -1.36288656      -1.43203801       0.00000000
Si      -1.37226880       1.33024140      -1.43059310       0.00000000
Si      -0.80215138      -1.74366531       1.49585462       0.00000000
Si       2.97060351      -0.13799259       2.03920754       0.00000000
Si      -2.65899961      -2.66916537       0.01482747       0.00000000
Si       2.66492166      -2.70454725      -0.01771728       0.00000000
Si      -2.30676094       3.04802190      -0.06677523       0.00000000
Si      -0.01000217       2.68309332      -2.80517895       0.00000000
Si       2.69287530      -0.02397888      -2.80287399       0.00000000
