10
Lattice="10.86 0.0 0.0 0.0 10.86 0.0 0.0 0.0 10.86" Properties=species:S:1:pos:R:3:initial_magmoms:R:1 pbc="T T T"
Si      -1.35750000      -1.35750000       1.35750000       0.00000000
Si       1.35750000      -1.35750000      -1.35750000       0.00000000
Si      -1.35750000       1.35750000      -1.35750000       0.00000000
Si       1.35750000       1.35750000       1.35750000       0.00000000
Si      -2.73481950      -0.09478608      -2.54710440       0.00000000
Si      -0.28451028      -2.88458976       2.51087544       0.00000000
Si       2.71500000       2.71500000       0.00000000       0.00000000
Si       0.00000000       2.71500000      -2.71500000       0.00000000
Si       0.00000000       2.71500000       2.71500000       0.00000000
Si      -2.71500000       2.71500000       0.00000000       0.00000000
