10
Lattice="16.28999089631971 0.0 0.0 0.0 16.28999089631971 0.0 0.0 0.0 34.61538196595647" Properties=species:S:1:pos:R:3:initial_magmoms:R:1 pbc="T T T"
Si       1.62243513      -1.67195673      -0.34113478       0.00000000
Si      -1.10247951      -0.17013276      -2.12978180       0.00000000
Si       0.33997230       2.30219144       0.64523108       0.00000000
Si      -1.26925653      -0.85266747       1.88563937       0.00000000
Si      -2.64915215      -1.77681546      -1.51615458       0.00000000
Si      -3.28664501      -1.16064621       0.69165033       0.00000000
Si       3.04631145      -1.57982049       1.49022764       0.00000000
Si      -1.55952152       2.87662571       1.97075864       0.00000000
Si       2.97245259      -1.27744551      -2.22909338       0.00000000
Si      -1.98924846       1.86495155      -2.85040522       0.00000000
