10
Lattice="16.28999089631971 0.0 0.0 0.0 16.28999089631971 0.0 0.0 0.0 34.61538196595647" Properties=species:S:1:pos:R:3:initial_magmoms:R:1 pbc="T T T"
Si       0.54804447      -1.04818005      -1.97505095       0.00000000
Si       0.19170072       2.12561694      -0.95271969       0.00000000
Si       1.53218853       0.05237235       1.80287395       0.00000000
Si      -2.37164481      -0.14841819       0.23462319       0.00000000
Si       1.13948550       2.22187455       2.62976665       0.00000000
Si      -0.39781809       0.46907055      -3.58591327       0.00000000
Si      -2.00842668       2.53188954      -1.86331244       0.00000000
Si       1.42786737       3.41554059       0.56589258       0.00000000
Si      -3.11764536      -1.06578954      -1.90786246       0.00000000
Si       2.76833889      -0.62815869      -2.58694740       0.00000000
