10
Lattice="16.28999089631971 0.0 0.0 0.0 16.28999089631971 0.0 0.0 0.0 34.61538196595647" Properties=species:S:1:pos:R:3:initial_magmoms:R:1 pbc="T T T"
Si       1.25631738       1.70157195      -1.27131984       0.00000000
Si      -1.76881707       1.62276093       0.58763105       0.00000000
Si      -0.66306816      -1.46333070      -2.09475101       0.00000000
Si      -0.48179304      -1.93559572       1.88817464       0.00000000
Si       2.16103140       0.68201343       1.94825313       0.00000000
Si      -0.37488177       3.50086761      -1.43511992       0.00000000
Si      -2.24052660      -2.98432311       0.79448027       0.00000000
Si      -3.27717333       0.49813191       1.93906967       0.00000000
Si      -1.78691526      -0.63928476       3.34909689       0.00000000
Si      -2.63169837       2.38575195      -1.49877765       0.00000000
