10
Lattice="16.28999089631971 0.0 0.0 0.0 16.28999089631971 0.0 0.0 0.0 34.61538196595647" Properties=species:S:1:pos:R:3:initial_magmoms:R:1 pbc="T T T"
Si      -1.35422028       1.35329175       1.35896604       0.00000000
Si       1.35708732       1.35630540      -1.35730450       0.00000000
Si       1.35348723      -1.35762489       1.36097373       0.00000000
Si      -1.35757602      -1.35817875      -1.35709681       0.00000000
Si      -0.00091224      -2.70309255       2.72340131       0.00000000
Si      -0.00008145       2.71373481      -2.71440131       0.00000000
Si       2.71345788      -0.00016290      -2.71495516       0.00000000
Si      -2.71508688       2.71412577       0.00193846       0.00000000
Si      -2.71529865      -0.00071676      -2.71460900       0.00000000
Si       2.71568961       2.71427238      -0.00065769       0.00000000
