10
Lattice="16.28999089631971 0.0 0.0 0.0 16.28999089631971 0.0 0.0 0.0 34.61538196595647" Properties=species:S:1:pos:R:3:initial_magmoms:R:1 pbc="T T T"
Si       1.35791811       1.35713619      -1.35903527       0.00000000
Si      -1.35754344      -1.35804843      -1.35879296       0.00000000
Si      -1.35923760       1.35764118       1.35924296       0.00000000
Si       1.36086660      -1.36083402       1.35702758       0.00000000
Si       2.71508688      -2.71412577      -0.00193846       0.00000000
Si       2.71500543      -0.00039096      -2.71633977       0.00000000
Si      -0.00021177      -2.71484253      -2.71654746       0.00000000
Si       2.70513369      -0.00708615       2.72623978       0.00000000
Si      -0.00063531       2.71531494      -2.71633977       0.00000000
Si      -2.71603333      -2.71562445      -0.00211154       0.00000000
