10
Lattice="16.28999089631971 0.0 0.0 0.0 16.28999089631971 0.0 0.0 0.0 34.61538196595647" Properties=species:S:1:pos:R:3:initial_magmoms:R:1 pbc="T T T"
Si       1.35422028      -1.35329175      -1.35896604       0.00000000
Si       1.34426709       1.35374787       1.36921220       0.00000000
Si      -1.36086660       1.36083402      -1.35702758       0.00000000
Si      -1.37655387      -1.35757602       1.36637374       0.00000000
Si       2.70770751      -2.71091664       0.00200769       0.00000000
Si      -2.71731861      -2.70744687       0.00245769       0.00000000
Si       2.70927135       2.71617831       0.00162692       0.00000000
Si      -0.00335574      -2.71147050      -2.71606285       0.00000000
Si       2.71130760       0.00301365      -2.71627054       0.00000000
Si      -0.00294849       2.71797021      -2.71606285       0.00000000
