10
Lattice="16.28999089631971 0.0 0.0 0.0 16.28999089631971 0.0 0.0 0.0 34.61538196595647" Properties=species:S:1:pos:R:3:initial_magmoms:R:1 pbc="T T T"
Si      -1.68687837      -0.93199977      -1.41767376       0.00000000
Si       1.02884382       1.65032361      -1.41770838       0.00000000
Si      -2.38466052       0.40713597       0.74367728       0.00000000
Si       1.40139612      -2.14456221       0.23863858       0.00000000
Si      -1.19369862       1.98579987       1.99678942       0.00000000
Si      -0.34520139      -2.31396192      -2.91305910       0.00000000
Si      -2.69221572      -1.39543398       2.24588185       0.00000000
Si       2.37561957       0.39736197      -2.91022063       0.00000000
Si      -3.09872127      -2.36498220      -0.12821545       0.00000000
Si       2.88649026       2.60784981      -0.30215784       0.00000000
