10
Lattice="16.28999089631971 0.0 0.0 0.0 16.28999089631971 0.0 0.0 0.0 34.61538196595647" Properties=species:S:1:pos:R:3:initial_magmoms:R:1 pbc="T T T"
Si      -2.22065280       0.06774522       0.71349265       0.00000000
Si       1.36881612       1.37117328       1.34823527       0.00000000
Si       0.80555679      -2.12797477       0.65810801       0.00000000
Si       0.20145843       1.20755652      -2.05016637       0.00000000
Si       2.50095483       0.87835191      -2.31438573       0.00000000
Si      -0.26669988       2.95913877       1.97231634       0.00000000
Si      -2.50298456       2.37001092       1.05878128       0.00000000
Si       3.12556230       1.91089356      -0.25047704       0.00000000
Si      -0.19391616      -2.36587393       2.81585905       0.00000000
Si      -2.26057959      -1.04675630       2.74666286       0.00000000
