10
Lattice="16.28999089631971 0.0 0.0 0.0 16.28999089631971 0.0 0.0 0.0 34.61538196595647" Properties=species:S:1:pos:R:3:initial_magmoms:R:1 pbc="T T T"
Si      -0.36227331      -2.31288678       0.26366551       0.00000000
Si       2.07834336       1.12599738       0.04821925       0.00000000
Si      -0.06918363      -0.02679705      -2.36990884       0.00000000
Si      -2.07855513       0.94749156       1.12908516       0.00000000
Si      -2.26330002      -2.45658087      -1.11426977       0.00000000
Si       3.37520655      -0.56593089      -0.97040816       0.00000000
Si      -3.49819605      -0.72172845      -0.03219232       0.00000000
Si      -1.62054549       3.17977542       0.50881178       0.00000000
Si       2.13009669      -0.57109482      -2.98287836       0.00000000
Si      -0.50257908      -1.17390627       3.53295170       0.00000000
