10
Lattice="16.28999089631971 0.0 0.0 0.0 16.28999089631971 0.0 0.0 0.0 34.61538196595647" Properties=species:S:1:pos:R:3:initial_magmoms:R:1 pbc="T T T"
Si      -1.36044306       1.35587697       1.36097373       0.00000000
Si       1.35700587      -1.36022160       1.36104296       0.00000000
Si       1.36386396       1.34491380      -1.38139336       0.00000000
Si      -1.36011726      -1.35159337      -1.38515259       0.00000000
Si       2.71518462       2.71271994      -0.00031154       0.00000000
Si      -0.11717397       2.67367281      -2.75142594       0.00000000
Si      -2.71471221       2.71529376       0.00702693       0.00000000
Si      -2.71461447      -2.71671166      -0.00034615       0.00000000
Si       2.71538010      -2.71627183       0.00526154       0.00000000
Si      -0.00146610       2.71420233       2.71831285       0.00000000
