10
Lattice="16.28999089631971 0.0 0.0 0.0 16.28999089631971 0.0 0.0 0.0 34.61538196595647" Properties=species:S:1:pos:R:3:initial_magmoms:R:1 pbc="T T T"
Si       1.35837423      -1.35605023      -1.35578142       0.00000000
Si      -1.35710361      -1.35621313       1.35782373       0.00000000
Si       1.35808101       1.35821630       1.35771989       0.00000000
Si      -1.35700587       1.36022160      -1.36104296       0.00000000
Si       0.00529425      -2.70582334      -2.71097092       0.00000000
Si       2.71458189      -2.71264885       0.00051923       0.00000000
Si       0.00008145      -2.71347964       2.71495516       0.00000000
Si       2.70816363      -0.00425716      -2.72113400       0.00000000
Si       2.71492398       0.00135981       2.71488592       0.00000000
Si      -2.71560816      -2.71424527       0.00093462       0.00000000
