10
Lattice="16.28999089631971 0.0 0.0 0.0 16.28999089631971 0.0 0.0 0.0 34.61538196595647" Properties=species:S:1:pos:R:3:initial_magmoms:R:1 pbc="T T T"
Si       1.35578412       1.35782363      -1.35671604       0.00000000
Si       1.35449721      -1.35689817       1.36080066       0.00000000
Si      -1.35964485      -1.35737891      -1.35675065       0.00000000
Si      -1.36246302       1.35780734       1.36100835       0.00000000
Si       2.71337643      -2.71463469      -0.00045000       0.00000000
Si       2.71295289       2.71551368      -0.00020769       0.00000000
Si       2.71406061      -0.00093830      -2.71447054       0.00000000
Si      -0.00112401      -2.71536774      -2.71436669       0.00000000
Si      -0.00249237       2.71526933      -2.71492054       0.00000000
Si      -2.71629234      -0.00031765      -2.71474746       0.00000000
