10
Lattice="16.28999089631971 0.0 0.0 0.0 16.28999089631971 0.0 0.0 0.0 34.61538196595647" Properties=species:S:1:pos:R:3:initial_magmoms:R:1 pbc="T T T"
Si      -0.89091639       0.46649347      -2.17066259       0.00000000
Si       1.23043257       2.08747879      -0.03755771       0.00000000
Si      -2.08986039       0.71046880       1.01322741       0.00000000
Si       1.25393904      -1.53992043       1.85185474       0.00000000
Si      -2.81196351      -1.33927453       1.83440858       0.00000000
Si      -0.84018933      -1.96474734       3.04598224       0.00000000
Si      -0.51463368       3.71092390       0.02211924       0.00000000
Si      -1.92766086       2.75901775      -1.73187776       0.00000000
Si       0.88055595       1.31389927      -3.49501322       0.00000000
Si       2.69198766       2.06133334      -2.02032790       0.00000000
