10
Lattice="16.28999089631971 0.0 0.0 0.0 16.28999089631971 0.0 0.0 0.0 34.61538196595647" Properties=species:S:1:pos:R:3:initial_magmoms:R:1 pbc="T T T"
Si      -0.03992679      -1.11450153       2.03317021       0.00000000
Si       2.22065280      -0.06774522      -0.71349265       0.00000000
Si      -1.34214939      -0.72178221      -1.77687778       0.00000000
Si      -0.28233176       2.30226570       0.34528863       0.00000000
Si      -1.03838813       1.19775483      -3.16104383       0.00000000
Si       1.95395292       2.89139355       1.25882368       0.00000000
Si      -0.46672642       3.14115183      -1.94202786       0.00000000
Si       3.02620959      -2.19572000      -0.05538464       0.00000000
Si       2.02673664      -2.43361916       2.10236640       0.00000000
Si      -2.02446323      -2.39419736       2.21767030       0.00000000
