10
Lattice="16.28999089631971 0.0 0.0 0.0 16.28999089631971 0.0 0.0 0.0 34.61538196595647" Properties=species:S:1:pos:R:3:initial_magmoms:R:1 pbc="T T T"
Si       1.41985269      -0.20582415       1.83354319       0.00000000
Si      -2.22029442      -0.42002136       0.61189645       0.00000000
Si       0.53113545       2.16432198      -0.75305806       0.00000000
Si      -0.28694835      -1.15587324      -2.05065099       0.00000000
Si       1.10697066      -2.51163455       1.93984709       0.00000000
Si      -1.67692518       2.88349290      -0.52238102       0.00000000
Si      -3.16615698       1.09722924      -0.99896587       0.00000000
Si      -1.00905147      -3.20561657      -1.22946982       0.00000000
Si      -2.40546285      -0.16021215      -2.77698595       0.00000000
Si       3.52137672       0.50911137       1.15622363       0.00000000
