10
Lattice="16.28999089631971 0.0 0.0 0.0 16.28999089631971 0.0 0.0 0.0 34.61538196595647" Properties=species:S:1:pos:R:3:initial_magmoms:R:1 pbc="T T T"
Si      -1.78650801       0.54638289       1.54581998       0.00000000
Si      -0.37478403      -2.36578760      -0.50853486       0.00000000
Si       2.20156092       0.17581797       1.10668900       0.00000000
Si       0.20606850       1.13748183      -2.22525107       0.00000000
Si       3.43319895      -1.43939580      -0.15594238       0.00000000
Si       1.06181478      -0.76605354      -3.49148245       0.00000000
Si       1.95043428      -0.70675305       3.31286698       0.00000000
Si       2.25359118       2.44454256      -2.10748948       0.00000000
Si      -1.20813156       2.53006506       2.77213980       0.00000000
Si      -0.15828993      -2.72687174      -2.92510526       0.00000000
