10
Lattice="16.28999089631971 0.0 0.0 0.0 16.28999089631971 0.0 0.0 0.0 34.61538196595647" Properties=species:S:1:pos:R:3:initial_magmoms:R:1 pbc="T T T"
Si       1.35594702       1.35780408      -1.35678527       0.00000000
Si      -1.35860229      -1.35796698      -1.35664681       0.00000000
Si       1.35589815      -1.35980775       1.35820450       0.00000000
Si      -1.36063854       1.35519768       1.36125066       0.00000000
Si       2.71321353      -2.71419093       0.00041538       0.00000000
Si       2.71360449       0.00032580      -2.71381285       0.00000000
Si      -0.00223173      -2.71443528      -2.71429746       0.00000000
Si       2.71318095       2.71564074      -0.00024231       0.00000000
Si      -0.00112401       2.71484253      -2.71422823       0.00000000
Si      -2.71577106      -0.00053757      -2.71374362       0.00000000
