10
Lattice="16.28999089631971 0.0 0.0 0.0 16.28999089631971 0.0 0.0 0.0 34.61538196595647" Properties=species:S:1:pos:R:3:initial_magmoms:R:1 pbc="T T T"
Si       1.74506625      -1.62344511      -0.05967695       0.00000000
Si      -0.75714291       0.31974012       2.28870110       0.00000000
Si      -1.41302718      -0.95190615      -1.75399700       0.00000000
Si       2.69480583       0.86711670       0.43864637       0.00000000
Si      -0.34402851       2.35092393      -2.27263956       0.00000000
Si      -1.57522671      -3.00045510       0.99110817       0.00000000
Si       2.87119395      -0.90497466       1.95639325       0.00000000
Si       0.51463368      -3.71092390      -0.02211924       0.00000000
Si      -1.28827836      -1.84458186       3.04175916       0.00000000
Si      -1.23215931       0.49563954      -3.57930173       0.00000000
