10
Lattice="16.28999089631971 0.0 0.0 0.0 16.28999089631971 0.0 0.0 0.0 34.61538196595647" Properties=species:S:1:pos:R:3:initial_magmoms:R:1 pbc="T T T"
Si       1.26276822      -1.28977704      -1.43762608       0.00000000
Si       1.38118023       1.32203124       1.36199489       0.00000000
Si      -1.33397181      -1.38717495       1.36282566       0.00000000
Si      -1.45169964       1.34012943      -1.55255613       0.00000000
Si      -0.65681280      -2.24194383      -2.83745702       0.00000000
Si      -2.46941739      -0.56542590      -2.72128774       0.00000000
Si       2.43607176       0.33171327      -2.85961088       0.00000000
Si      -2.71793763       2.67931404      -0.02630078       0.00000000
Si       0.02599884       2.68121997       2.72148016       0.00000000
Si      -2.69136864      -0.03495834       2.72116862       0.00000000
