10
Lattice="16.28999089631971 0.0 0.0 0.0 16.28999089631971 0.0 0.0 0.0 34.61538196595647" Properties=species:S:1:pos:R:3:initial_magmoms:R:1 pbc="T T T"
Si      -1.82549717      -0.85092444       1.30761195       0.00000000
Si      -1.85001362       0.07283259      -1.64237629       0.00000000
Si       0.83056683       1.91620899       1.37828275       0.00000000
Si       2.00816604       1.94536809      -1.78665328       0.00000000
Si      -0.43887608      -2.10342996       2.69870454       0.00000000
Si       2.27569671       0.60325128       2.68924415       0.00000000
Si       0.84454528      -3.49153670       1.20583920       0.00000000
Si       3.50409303      -0.96503589       1.29680156       0.00000000
Si      -2.98283651      -2.45444688      -0.05006783       0.00000000
Si       2.74304052      -2.77667937      -0.00671871       0.00000000
