10
Lattice="16.28999089631971 0.0 0.0 0.0 16.28999089631971 0.0 0.0 0.0 34.61538196595647" Properties=species:S:1:pos:R:3:initial_magmoms:R:1 pbc="T T T"
Si       1.35847197       1.35676152      -1.35636988       0.00000000
Si      -1.35723393      -1.35783666      -1.35654296       0.00000000
Si      -1.35850455       1.35798327       1.35709681       0.00000000
Si       1.36054080      -1.36044306       1.36187373       0.00000000
Si      -2.71244790       2.71308321       0.00090000       0.00000000
Si      -2.71168227       0.02076975       2.71543977       0.00000000
Si      -2.71430496      -0.00079821      -2.71398592       0.00000000
Si       0.00063531       2.71464705      -2.71374362       0.00000000
Si      -2.71318095      -2.71564074       0.00024231       0.00000000
Si       0.00042354      -2.71531494      -2.71357054       0.00000000
