10
Lattice="16.28999089631971 0.0 0.0 0.0 16.28999089631971 0.0 0.0 0.0 34.61538196595647" Properties=species:S:1:pos:R:3:initial_magmoms:R:1 pbc="T T T"
Si       0.63170991      -1.32947577       1.78992779       0.00000000
Si       1.64910186       1.45080369      -0.82138886       0.00000000
Si      -0.94649787      -1.62223965      -1.45360455       0.00000000
Si      -1.86171894       1.04148486       1.05431589       0.00000000
Si       0.37980135       3.46970484      -0.41500405       0.00000000
Si      -3.20647473      -1.44000342      -0.83655040       0.00000000
Si      -0.83217465      -3.21610212       1.57243922       0.00000000
Si      -3.54439449       0.83494395      -0.53934257       0.00000000
Si       2.52296262      -2.48215617       1.02160434       0.00000000
Si       3.57234813       1.28233251       0.63758108       0.00000000
