10
Lattice="16.28999089631971 0.0 0.0 0.0 16.28999089631971 0.0 0.0 0.0 34.61538196595647" Properties=species:S:1:pos:R:3:initial_magmoms:R:1 pbc="T T T"
Si      -1.30447209       1.41973866       1.32689141       0.00000000
Si       1.44512988      -1.31295771       1.31096140       0.00000000
Si       1.09328217       1.58661342      -1.39525825       0.00000000
Si      -0.83056683      -1.91620899      -1.37828275       0.00000000
Si       1.17759921       0.02915910      -3.16493603       0.00000000
Si      -0.60631380       3.40407243      -1.42620442       0.00000000
Si      -2.63089594       0.05870916       2.68328206       0.00000000
Si       0.08423070      -2.65761576       2.67940514       0.00000000
Si      -2.60909992       2.77223220      -0.16953931       0.00000000
Si      -2.65606399      -2.76713343      -0.07067080       0.00000000
