10
Lattice="16.28999089631971 0.0 0.0 0.0 16.28999089631971 0.0 0.0 0.0 34.61538196595647" Properties=species:S:1:pos:R:3:initial_magmoms:R:1 pbc="T T T"
Si       1.48012569       1.20888090      -1.33356322       0.00000000
Si      -1.26527688       1.37593485       1.40757991       0.00000000
Si       1.45046160      -1.34625447       1.37873490       0.00000000
Si      -1.80001242      -0.90471402      -1.45392097       0.00000000
Si      -0.00902466      -1.96859763      -2.85480626       0.00000000
Si      -2.58781311       2.68802919      -0.00292154       0.00000000
Si       2.74895379       2.61881298       0.11029159       0.00000000
Si      -2.62713717       0.01145187       2.75612325       0.00000000
Si      -2.74721076      -2.68858305      -0.15479315       0.00000000
Si       0.08566911      -2.70668124       2.75975787       0.00000000
