10
Lattice="16.28999089631971 0.0 0.0 0.0 16.28999089631971 0.0 0.0 0.0 34.61538196595647" Properties=species:S:1:pos:R:3:initial_magmoms:R:1 pbc="T T T"
Si      -1.32253623       1.31209434      -1.41050145       0.00000000
Si       1.26527688      -1.37593485      -1.40757991       0.00000000
Si       1.35307998       1.34977311       1.35518950       0.00000000
Si      -1.36186029      -1.36448298       1.34854334       0.00000000
Si      -2.42012385      -0.43562718      -2.68153122       0.00000000
Si      -0.53473554      -2.28064887      -2.86150088       0.00000000
Si       0.07734492       2.47880043      -2.90217398       0.00000000
Si       2.70286938       2.70156618      -0.01016308       0.00000000
Si      -0.00529425       2.70582334       2.71097092       0.00000000
Si       2.70928764      -0.00682551       2.71149015       0.00000000
