10
Lattice="16.28999089631971 0.0 0.0 0.0 16.28999089631971 0.0 0.0 0.0 34.61538196595647" Properties=species:S:1:pos:R:3:initial_magmoms:R:1 pbc="T T T"
Si      -1.35925389      -1.33722474      -1.38184682       0.00000000
Si      -1.24805835       1.42390727       1.41926607       0.00000000
Si       1.35532800       1.37927267      -1.37897374       0.00000000
Si       1.38411243      -1.41404598       1.53917382       0.00000000
Si       0.56337336       2.17134134       2.89395140       0.00000000
Si      -2.70389565      -2.68820091       0.01938462       0.00000000
Si       2.72297124      -2.69341371      -0.00415385       0.00000000
Si       2.42453844       0.33674525       2.94888604       0.00000000
Si      -0.00037467      -2.69496126      -2.74309748       0.00000000
Si      -2.69459406       2.74750235      -0.01066154       0.00000000
