10
Lattice="16.28999089631971 0.0 0.0 0.0 16.28999089631971 0.0 0.0 0.0 34.61538196595647" Properties=species:S:1:pos:R:3:initial_magmoms:R:1 pbc="T T T"
Si       0.14154381      -0.01213605      -2.32805882       0.00000000
Si       2.05859241      -0.18979479       1.11544669       0.00000000
Si      -0.89391375      -2.16692349       0.32652708       0.00000000
Si      -1.79704764       1.53805293       0.70958111       0.00000000
Si      -2.98882404      -1.67254317      -0.67441186       0.00000000
Si      -2.00142198      -0.98837946      -2.75573210       0.00000000
Si      -0.61743987      -2.34588543       2.66112821       0.00000000
Si       1.75483115      -2.10933183       2.49961274       0.00000000
Si      -1.72068012       3.37989807      -0.72405035       0.00000000
Si      -3.84457032       0.23099220       0.59181952       0.00000000
