10
Lattice="16.28999089631971 0.0 0.0 0.0 16.28999089631971 0.0 0.0 0.0 34.61538196595647" Properties=species:S:1:pos:R:3:initial_magmoms:R:1 pbc="T T T"
Si       1.57452624      -1.07961879      -1.53740843       0.00000000
Si      -1.85499117      -1.62491025       0.05850003       0.00000000
Si       1.80502974      -0.64573464       1.60257024       0.00000000
Si      -0.73779039       2.04319768       1.52733535       0.00000000
Si      -1.59819561       1.08888550      -1.90163169       0.00000000
Si      -1.54541601       2.99876909      -0.49171178       0.00000000
Si       0.39105774      -1.78034943       2.98759787       0.00000000
Si       2.46686705      -2.47045899       0.28073090       0.00000000
Si      -0.87777036      -3.19028151       1.54374305       0.00000000
Si      -2.95248105      -0.89778981      -1.95476633       0.00000000
