10
Lattice="16.28999089631971 0.0 0.0 0.0 16.28999089631971 0.0 0.0 0.0 34.61538196595647" Properties=species:S:1:pos:R:3:initial_magmoms:R:1 pbc="T T T"
Si       0.05277960       1.90988358       1.40991991       0.00000000
Si       0.25112664       0.88257102      -2.20617799       0.00000000
Si      -1.35428544      -1.98667531      -0.05313464       0.00000000
Si       1.59819561      -1.08888550       1.90163169       0.00000000
Si      -0.25679556      -2.71379575       1.96013171       0.00000000
Si       0.86040522       0.95431218       3.42896704       0.00000000
Si       0.97824708       3.15650841      -1.69535851       0.00000000
Si      -0.81777429       3.66146583      -0.15462700       0.00000000
Si      -3.26691063      -1.57631392       1.19831596       0.00000000
Si       1.48276467      -0.73264275      -3.46880937       0.00000000
