10
Lattice="16.28999089631971 0.0 0.0 0.0 16.28999089631971 0.0 0.0 0.0 34.61538196595647" Properties=species:S:1:pos:R:3:initial_magmoms:R:1 pbc="T T T"
Si      -2.12962428       0.67611645       0.61459645       0.00000000
Si       0.04367349      -2.03023899       1.18415826       0.00000000
Si      -0.34893180      -1.05420735      -2.08087023       0.00000000
Si       1.38755518       1.70471592       0.89816582       0.00000000
Si      -3.28072455      -1.21269276      -0.12651929       0.00000000
Si       1.53099514      -3.21957189      -0.19350009       0.00000000
Si      -1.81855044       1.36179513       2.78816673       0.00000000
Si      -2.64262896      -0.78219693      -2.36810883       0.00000000
Si      -2.09929230      -3.00648240       0.75648498       0.00000000
Si       0.36605259       2.22513255       3.00323222       0.00000000
