10
Lattice="16.28999089631971 0.0 0.0 0.0 16.28999089631971 0.0 0.0 0.0 34.61538196595647" Properties=species:S:1:pos:R:3:initial_magmoms:R:1 pbc="T T T"
Si      -0.13654278      -1.32209640       1.92766247       0.00000000
Si       2.12441148       0.66099933      -0.79030423       0.00000000
Si      -0.81163296      -1.32730920      -1.79733548       0.00000000
Si      -0.90091845       2.14816230       0.47547715       0.00000000
Si      -0.73526544       0.51453594      -3.23096694       0.00000000
Si       1.44933759       1.37787336      -3.01590145       0.00000000
Si       3.61566880      -1.11175992      -0.17245393       0.00000000
Si      -3.19652154       2.01852648       1.03877358       0.00000000
Si       0.98541468      -2.86536213      -2.50691659       0.00000000
Si       1.88946081      -1.14767937       3.25893619       0.00000000
