10
Lattice="16.28999089631971 0.0 0.0 0.0 16.28999089631971 0.0 0.0 0.0 34.61538196595647" Properties=species:S:1:pos:R:3:initial_magmoms:R:1 pbc="T T T"
Si       1.91060264      -0.80296668      -1.14407363       0.00000000
Si      -1.01102256       0.15066621       2.20074337       0.00000000
Si      -2.02600359      -0.17441703      -1.33127372       0.00000000
Si       1.23618035       2.08466388       0.30011553       0.00000000
Si      -1.93153788       2.49864165       1.88235091       0.00000000
Si      -2.95147107      -1.42104186       1.77400470       0.00000000
Si       1.72620799       0.03591945      -3.43139012       0.00000000
Si      -3.82202496       0.33054039       0.20945779       0.00000000
Si      -0.35815194       3.81197403       0.61836953       0.00000000
Si       0.83899106       0.07783362       3.84311965       0.00000000
