10
Lattice="16.28999089631971 0.0 0.0 0.0 16.28999089631971 0.0 0.0 0.0 34.61538196595647" Properties=species:S:1:pos:R:3:initial_magmoms:R:1 pbc="T T T"
Si      -0.77074506       2.10738843       0.59085028       0.00000000
Si       2.44796087      -0.22869531      -0.11533852       0.00000000
Si      -1.69130925      -2.16073818       1.01115049       0.00000000
Si      -0.79785162       0.39084597      -3.10441304       0.00000000
Si       1.99297629      -2.44058409      -0.92866199       0.00000000
Si       0.33938586      -3.29273028       0.68334264       0.00000000
Si       1.39749534       3.09531177      -0.46782715       0.00000000
Si      -2.89862631       2.24687970      -0.55374257       0.00000000
Si      -1.58260608      -1.03182489       3.31632852       0.00000000
Si      -3.43407861      -1.65452643      -0.43871560       0.00000000
