10
Lattice="16.28999089631971 0.0 0.0 0.0 16.28999089631971 0.0 0.0 0.0 34.61538196595647" Properties=species:S:1:pos:R:3:initial_magmoms:R:1 pbc="T T T"
Si       1.39564575       1.76502150      -0.57177720       0.00000000
Si      -2.02429314       1.09468800      -0.49977716       0.00000000
Si      -0.25319547      -1.88939565      -1.39635067       0.00000000
Si      -0.12598686      -0.83583990       2.20880876       0.00000000
Si       1.28694258       0.63610821      -2.87695523       0.00000000
Si      -2.40834618      -0.93379167       2.43647425       0.00000000
Si      -2.96676738       1.23442362       1.64537387       0.00000000
Si       0.53670663      -3.63604203      -0.10561159       0.00000000
Si       0.84778047      -2.95036335       2.06795869       0.00000000
Si      -2.55710646      -2.39308245      -1.20707366       0.00000000
