10
Lattice="16.28999089631971 0.0 0.0 0.0 16.28999089631971 0.0 0.0 0.0 34.61538196595647" Properties=species:S:1:pos:R:3:initial_magmoms:R:1 pbc="T T T"
Si      -1.39564575      -1.76502150       0.57177720       0.00000000
Si       2.12460696      -0.54499824       0.82498886       0.00000000
Si      -1.21334436       2.05182324       0.51666948       0.00000000
Si      -0.10870317      -1.12891329      -2.30517803       0.00000000
Si      -3.41993889      -0.67033350       0.07200003       0.00000000
Si      -3.09988926       1.46118042      -0.77919268       0.00000000
Si       0.27844497       3.58301808      -0.46052330       0.00000000
Si       2.99584570      -2.30485581      -0.48478870       0.00000000
Si       1.58260608       1.03182489      -3.31632852       0.00000000
Si       1.98912303      -1.46241846       2.94992450       0.00000000
