10
Lattice="16.28999089631971 0.0 0.0 0.0 16.28999089631971 0.0 0.0 0.0 34.61538196595647" Properties=species:S:1:pos:R:3:initial_magmoms:R:1 pbc="T T T"
Si       1.59312942       1.04907600      -1.39624683       0.00000000
Si       1.27635408      -0.93155994       1.83645089       0.00000000
Si      -1.15587324      -1.44769230      -1.56537768       0.00000000
Si      -1.67295042       1.43070183       1.08031206       0.00000000
Si      -1.33530759       0.24355179      -3.21919771       0.00000000
Si      -3.31279956      -0.56858616       1.14750055       0.00000000
Si       2.85592763      -0.97184511      -1.94227017       0.00000000
Si       2.21986015       1.12286970       2.76812441       0.00000000
Si       0.50158539       1.66702086      -3.41287088       0.00000000
Si      -0.29703186      -2.24489232       3.10043226       0.00000000
