10
Lattice="16.28999089631971 0.0 0.0 0.0 16.28999089631971 0.0 0.0 0.0 34.61538196595647" Properties=species:S:1:pos:R:3:initial_magmoms:R:1 pbc="T T T"
Si       1.35752715       1.35683989      -1.35685450       0.00000000
Si      -1.35731538      -1.35799956      -1.35678527       0.00000000
Si       1.35586557      -1.35726651       1.36052373       0.00000000
Si      -1.35887922       1.35773652       1.36125066       0.00000000
Si       0.00068418       2.71369638      -2.71402054       0.00000000
Si      -2.71337643       2.71463469       0.00045000       0.00000000
Si      -2.71450044      -0.00073305      -2.71391669       0.00000000
Si       2.71467963      -0.00037467      -2.71391669       0.00000000
Si       0.00017919      -2.71536381      -2.71415900       0.00000000
Si      -2.71290402      -2.71692765       0.00048462       0.00000000
