10
Lattice="16.28999089631971 0.0 0.0 0.0 16.28999089631971 0.0 0.0 0.0 34.61538196595647" Properties=species:S:1:pos:R:3:initial_magmoms:R:1 pbc="T T T"
Si       1.35526027      -1.35684297       1.35758142       0.00000000
Si       1.35623569       1.35786924      -1.35699296       0.00000000
Si      -1.35840681      -1.35695700      -1.35650835       0.00000000
Si      -1.36055709       1.35902583       1.36080066       0.00000000
Si      -0.00320913      -2.69728191       2.72544362       0.00000000
Si       2.71273853      -2.71322982       0.00107308       0.00000000
Si       2.70654019      -0.00879660       2.72028593       0.00000000
Si       2.71412318       0.00021177      -2.71398592       0.00000000
Si      -0.00131949      -2.71428867      -2.71405516       0.00000000
Si      -0.00174303       2.71591767      -2.71363977       0.00000000
