10
Lattice="16.28999089631971 0.0 0.0 0.0 16.28999089631971 0.0 0.0 0.0 34.61538196595647" Properties=species:S:1:pos:R:3:initial_magmoms:R:1 pbc="T T T"
Si       0.75953754       1.85007159      -1.49604303       0.00000000
Si      -1.86810462      -0.79581537      -1.49306610       0.00000000
Si      -0.34070535       0.02816541       2.50404352       0.00000000
Si       1.76006934      -1.82786832      -0.04662695       0.00000000
Si       2.09839635       0.57070386      -3.03937070       0.00000000
Si      -0.63066735      -2.14731522      -3.04269378       0.00000000
Si       3.39433101      -0.86850135      -1.59632385       0.00000000
Si       0.76592322      -3.42560781      -1.59639308       0.00000000
Si       1.79996355       3.60086282      -0.08633081       0.00000000
Si      -3.48239475      -2.03263362      -0.16293469       0.00000000
