10
Lattice="16.28999089631971 0.0 0.0 0.0 16.28999089631971 0.0 0.0 0.0 34.61538196595647" Properties=species:S:1:pos:R:3:initial_magmoms:R:1 pbc="T T T"
Si       1.57216160       1.04549220       1.44017377       0.00000000
Si       1.40368228      -1.28743128      -1.46198147       0.00000000
Si      -1.29593466       1.43920521      -1.44304685       0.00000000
Si      -1.63426167      -0.95936697       1.54969690       0.00000000
Si       3.40455203      -0.56073438       1.15843902       0.00000000
Si      -2.62840779      -2.55710646      -0.00006923       0.00000000
Si       2.64384161       2.67162516       0.05050387       0.00000000
Si       2.78219258      -2.56738545      -0.00657693       0.00000000
Si      -2.63479347       2.71857294       0.10028082       0.00000000
Si      -3.39433101       0.86850135       1.59632385       0.00000000
