10
Lattice="16.28999089631971 0.0 0.0 0.0 16.28999089631971 0.0 0.0 0.0 34.61538196595647" Properties=species:S:1:pos:R:3:initial_magmoms:R:1 pbc="T T T"
Si       1.64383434      -1.52660106      -0.75918498       0.00000000
Si      -1.52536302       0.70025823      -1.67860466       0.00000000
Si      -1.57245741      -0.91347804       1.55540844       0.00000000
Si       0.71087931       1.55292570       1.72235852       0.00000000
Si      -0.10363698      -1.46663757       3.28718235       0.00000000
Si      -0.97907787       2.98878724      -2.11067409       0.00000000
Si       0.50103153      -3.44502549      -1.62027770       0.00000000
Si      -3.74207364       0.57612843      -0.82962732       0.00000000
Si       1.60322012       0.16208550       3.54049786       0.00000000
Si       2.88442862      -2.38799997       1.06605051       0.00000000
