10
Lattice="16.28999089631971 0.0 0.0 0.0 16.28999089631971 0.0 0.0 0.0 34.61538196595647" Properties=species:S:1:pos:R:3:initial_magmoms:R:1 pbc="T T T"
Si       1.35127992       1.34804637       1.36270450       0.00000000
Si      -1.35846940      -1.34043894       1.36786220       0.00000000
Si      -1.35526027       1.35684297      -1.35758142       0.00000000
Si       1.35747826      -1.35638685      -1.35650835       0.00000000
Si      -0.01682500      -2.61304632       2.79370519       0.00000000
Si      -2.71366708      -0.00011403      -2.71408977       0.00000000
Si      -2.71159825      -2.71731861       0.00415385       0.00000000
Si       0.00097542       2.71471221      -2.71457439       0.00000000
Si       0.00119878      -2.71520091      -2.71429746       0.00000000
Si       2.71465681      -2.71502172       0.00436154       0.00000000
