10
Lattice="16.28999089631971 0.0 0.0 0.0 16.28999089631971 0.0 0.0 0.0 34.61538196595647" Properties=species:S:1:pos:R:3:initial_magmoms:R:1 pbc="T T T"
Si       1.35721764       1.35664224       1.35730450       0.00000000
Si      -1.35705474      -1.35755262       1.35688912       0.00000000
Si       1.35742941      -1.35781326      -1.35695835       0.00000000
Si      -1.35785132       1.35743394      -1.35720065       0.00000000
Si       2.71353933       0.00005363      -2.71426285       0.00000000
Si       0.00021177       2.71444958      -2.71464362       0.00000000
Si      -0.00148239      -2.71437930      -2.71488592       0.00000000
Si       2.71451673      -2.71486800       0.00045000       0.00000000
Si      -2.71657986      -0.00200561      -2.71363977       0.00000000
Si      -2.71518007      -2.71507977      -0.00020769       0.00000000
