10
Lattice="16.28999089631971 0.0 0.0 0.0 16.28999089631971 0.0 0.0 0.0 34.61538196595647" Properties=species:S:1:pos:R:3:initial_magmoms:R:1 pbc="T T T"
Si       1.35422843      -1.35650088       1.35733912       0.00000000
Si       1.34254849       1.34401209      -1.38609413       0.00000000
Si      -1.36086904       1.35587281       1.35858527       0.00000000
Si      -1.33550211      -1.38533418      -1.36629412       0.00000000
Si      -2.76999951      -0.10624338      -2.65071243       0.00000000
Si       2.71139719      -2.71614573      -0.00276923       0.00000000
Si       2.71314023       0.00006516       2.71526669       0.00000000
Si      -2.71495560       2.71388535      -0.00103846       0.00000000
Si       2.71630048       2.71354326      -0.00242308       0.00000000
Si      -0.00158176      -2.71485882       2.71502439       0.00000000
