10
Lattice="16.28999089631971 0.0 0.0 0.0 16.28999089631971 0.0 0.0 0.0 34.61538196595647" Properties=species:S:1:pos:R:3:initial_magmoms:R:1 pbc="T T T"
Si       1.29529935       1.95869235      -0.29464630       0.00000000
Si       1.77761367      -1.59861915       0.38464634       0.00000000
Si      -0.95940444       0.61548507       2.16083181       0.00000000
Si      -1.66775228      -0.21553299      -2.00201635       0.00000000
Si       0.16886214      -3.35865591       0.61757337       0.00000000
Si      -1.84617339       2.65056938       1.44020839       0.00000000
Si       3.37031955       1.44846186       0.68510802       0.00000000
Si       3.11552766      -0.49182768       2.06152023       0.00000000
Si       0.22473684       3.71070629       1.03005050       0.00000000
Si      -2.50607708      -0.99119763       2.77445903       0.00000000
