10
Lattice="16.28999089631971 0.0 0.0 0.0 16.28999089631971 0.0 0.0 0.0 34.397273925272025" Properties=species:S:1:pos:R:3:initial_magmoms:R:1 pbc="T T T"
Si      -1.33333359      -1.35547135       1.36424824       0.00000000
Si       1.29301256      -1.33882134      -1.41918072       0.00000000
Si       1.38442715       1.35571896       1.35888226       0.00000000
Si      -1.33914912       1.34495127      -1.48421912       0.00000000
Si       2.34568865       0.55078119      -2.38984000       0.00000000
Si       0.53286577       2.11507731      -2.71060787       0.00000000
Si      -2.69180556      -2.71101611      -0.00918752       0.00000000
Si      -2.69092590      -0.00175932       2.71908882       0.00000000
Si      -2.69312505       2.72354139      -0.03014579       0.00000000
Si       0.02495185       2.71410948       2.71932961       0.00000000
