10
Lattice="16.28999089631971 0.0 0.0 0.0 16.28999089631971 0.0 0.0 0.0 34.397273925272025" Properties=species:S:1:pos:R:3:initial_magmoms:R:1 pbc="T T T"
Si       1.91166734       0.05657517      -1.34631005       0.00000000
Si      -1.57756011      -1.51568676      -0.84345603       0.00000000
Si       0.15514596      -0.69023988       2.27600009       0.00000000
Si      -0.81564423       2.22125620      -0.41249234       0.00000000
Si      -2.86194516      -0.04481379      -2.12217540       0.00000000
Si      -0.73406391       3.11645523       1.82044234       0.00000000
Si       0.99665152       0.22221189      -3.57735288       0.00000000
Si       0.49014981      -3.06418158       2.09324727       0.00000000
Si      -3.12540333       1.90244950      -0.85766211       0.00000000
Si       3.10828187       2.02302971      -0.80004664       0.00000000
