10
Lattice="16.28999089631971 0.0 0.0 0.0 16.28999089631971 0.0 0.0 0.0 34.397273925272025" Properties=species:S:1:pos:R:3:initial_magmoms:R:1 pbc="T T T"
Si      -1.35747828       1.35733656       1.35721400       0.00000000
Si       1.35715248      -1.35751106       1.35766116       0.00000000
Si      -1.35747828      -1.35735985      -1.35776435       0.00000000
Si       1.35847197       1.35800445      -1.35704201       0.00000000
Si       2.71249677       0.00131134      -2.71607906       0.00000000
Si       2.71415835      -2.71487741      -0.00027518       0.00000000
Si       2.71456560       2.71448904      -0.00013759       0.00000000
Si      -0.00047241      -2.71346018      -2.71559750       0.00000000
Si      -0.00055386       2.71541757       2.71374005       0.00000000
Si      -0.00141723      -2.71445387       2.71490955       0.00000000
