10
Lattice="16.28999089631971 0.0 0.0 0.0 16.28999089631971 0.0 0.0 0.0 34.397273925272025" Properties=species:S:1:pos:R:3:initial_magmoms:R:1 pbc="T T T"
Si      -1.35068535       1.35448092      -1.35920904       0.00000000
Si      -1.35128808      -1.35141677       1.37124809       0.00000000
Si       1.36557441      -1.36080307      -1.35690442       0.00000000
Si       1.38225537       1.35272160       1.36268317       0.00000000
Si       0.26764470      -2.36684415       2.79646554       0.00000000
Si      -2.70892926       2.71252935      -0.00182306       0.00000000
Si      -2.70760977      -0.00360009      -2.71573509       0.00000000
Si       0.00656487       2.71117728      -2.71587268       0.00000000
Si      -2.70500337      -2.72263886       0.00189185       0.00000000
Si       2.72315043       2.70604593       0.00261419       0.00000000
