10
Lattice="16.28999089631971 0.0 0.0 0.0 16.28999089631971 0.0 0.0 0.0 34.397273925272025" Properties=species:S:1:pos:R:3:initial_magmoms:R:1 pbc="T T T"
Si      -1.35839052      -1.35342207       1.36908794       0.00000000
Si       1.35104373       1.36461330       1.37042944       0.00000000
Si       1.37730321      -1.34561916      -1.38081742       0.00000000
Si      -1.30148955       1.34791605      -1.46783225       0.00000000
Si      -2.70544320       2.71847520      -0.00979979       0.00000000
Si       2.72723922       2.70216891       0.01127543       0.00000000
Si      -2.70037701      -2.73012255      -0.00997522       0.00000000
Si      -0.00188964      -2.70962973       2.73012004       0.00000000
Si       2.71207323       0.00501732       2.72953528       0.00000000
Si       2.72647359      -2.71844262       0.00027174       0.00000000
