10
Lattice="16.28999089631971 0.0 0.0 0.0 16.28999089631971 0.0 0.0 0.0 34.397273925272025" Properties=species:S:1:pos:R:3:initial_magmoms:R:1 pbc="T T T"
Si      -1.40763519      -1.63004256      -0.92054036       0.00000000
Si      -1.19384523       1.95980103      -0.74280955       0.00000000
Si       2.27457270      -0.58461552      -0.61533318       0.00000000
Si      -0.00501732      -1.07610111       2.28270757       0.00000000
Si       0.69206436      -3.18979377       1.35263916       0.00000000
Si      -0.62534052      -1.85363910      -3.09238545       0.00000000
Si      -1.06694613       3.37980033       1.13820643       0.00000000
Si       2.52125217      -2.92149747      -0.15915628       0.00000000
Si      -3.63623262      -0.88513344      -1.10783362       0.00000000
Si       3.80114118       0.55399032       0.89082110       0.00000000
