10
Lattice="16.28999089631971 0.0 0.0 0.0 16.28999089631971 0.0 0.0 0.0 34.397273925272025" Properties=species:S:1:pos:R:3:initial_magmoms:R:1 pbc="T T T"
Si      -0.08977419      -0.90609867      -2.14924607       0.00000000
Si       0.45781416      -1.43998713       1.82759698       0.00000000
Si      -2.42004240      -0.16606026       0.39439936       0.00000000
Si       1.55686788       1.94145849       0.14845872       0.00000000
Si      -0.28149120       3.31763769      -0.27387125       0.00000000
Si      -2.29275234       0.84287718       2.51595561       0.00000000
Si      -0.51106617      -0.25184340       3.57831601       0.00000000
Si      -1.71843210       2.90870982       1.60900218       0.00000000
Si      -0.80604549      -3.38053338       1.52493520       0.00000000
Si      -2.79896409      -2.49970050       0.69104162       0.00000000
