10
Lattice="16.28999089631971 0.0 0.0 0.0 16.28999089631971 0.0 0.0 0.0 34.397273925272025" Properties=species:S:1:pos:R:3:initial_magmoms:R:1 pbc="T T T"
Si       0.64539351      -1.11516453      -1.90364939       0.00000000
Si       1.05448428      -1.29285585       1.77686097       0.00000000
Si      -1.69015266       1.67541021      -0.68254549       0.00000000
Si       1.90189008       1.36202319      -1.07109731       0.00000000
Si      -2.11607100       1.60446726       1.68010139       0.00000000
Si       2.14141824      -2.75690331       0.20277204       0.00000000
Si       2.38163058       3.08620566       0.43533214       0.00000000
Si       2.37174255       0.10629225       3.17345784       0.00000000
Si      -0.77476869       3.07924983      -2.42590350       0.00000000
Si       0.82041327      -0.03163518      -3.93367444       0.00000000
