10
Lattice="16.28999089631971 0.0 0.0 0.0 16.28999089631971 0.0 0.0 0.0 34.397273925272025" Properties=species:S:1:pos:R:3:initial_magmoms:R:1 pbc="T T T"
Si      -1.44829503      -1.11808044      -1.51065830       0.00000000
Si       1.27826001      -1.37140623       1.48010520       0.00000000
Si       1.78947279       0.85092444      -1.41733844       0.00000000
Si      -1.42197039       1.35094599       1.45797399       0.00000000
Si      -2.57192384      -2.49986340       0.08516426       0.00000000
Si       2.68097562       2.58634931      -0.01652102       0.00000000
Si       2.58118308      -2.70218520       0.03153544       0.00000000
Si       2.64588696      -0.01213605       2.84704676       0.00000000
Si      -0.07227873       2.70338970       2.84384781       0.00000000
Si      -0.06468759      -2.73072528       2.84697796       0.00000000
