10
Lattice="16.28999089631971 0.0 0.0 0.0 16.28999089631971 0.0 0.0 0.0 34.397273925272025" Properties=species:S:1:pos:R:3:initial_magmoms:R:1 pbc="T T T"
Si      -1.30292307       1.33077897       1.44856977       0.00000000
Si       1.22030019       1.59891237      -1.25826113       0.00000000
Si      -1.56799395      -1.18600974      -1.40113044       0.00000000
Si       1.42017849      -1.38502467       1.43399907       0.00000000
Si      -2.58118308       2.70218520      -0.03153544       0.00000000
Si      -2.64587067      -0.02854008       2.81544252       0.00000000
Si      -2.67999822      -2.81062773      -0.03526754       0.00000000
Si       2.77788483       2.71878471       0.06058051       0.00000000
Si       0.06470388       2.69004915       2.81551132       0.00000000
Si      -0.79171029       3.55310964      -1.44887388       0.00000000
