10
Lattice="16.28999089631971 0.0 0.0 0.0 16.28999089631971 0.0 0.0 0.0 34.397273925272025" Properties=species:S:1:pos:R:3:initial_magmoms:R:1 pbc="T T T"
Si      -0.78229467       0.22359654       2.17184509       0.00000000
Si      -1.25545401      -1.88950968      -0.50639695       0.00000000
Si       0.20869119       1.75632264      -1.53577034       0.00000000
Si       2.16705870      -0.75204414      -0.56139822       0.00000000
Si       1.61775990      -1.43681058      -2.82236670       0.00000000
Si      -0.48729906      -3.29227416       1.26970728       0.00000000
Si      -0.57557457      -2.25320674      -2.69922439       0.00000000
Si       0.62534052       1.85363910       3.09238545       0.00000000
Si       3.50300160       1.10169270       0.19475747       0.00000000
Si      -3.01089210       0.96850566       1.98455183       0.00000000
