10
Lattice="16.28999089631971 0.0 0.0 0.0 16.28999089631971 0.0 0.0 0.0 34.397273925272025" Properties=species:S:1:pos:R:3:initial_magmoms:R:1 pbc="T T T"
Si      -1.33851672      -1.35713885      -1.38418147       0.00000000
Si       1.37064060       1.36429727      -1.37737081       0.00000000
Si       1.41696936      -1.17648335       1.53250260       0.00000000
Si      -1.40735826       1.36273343       1.46449915       0.00000000
Si       2.13943086       0.85277498       2.63703408       0.00000000
Si       0.40659840       2.53189931       2.51313503       0.00000000
Si      -2.70006750      -2.68773338      -0.00636350       0.00000000
Si      -2.68063353       2.71710032      -0.01991603       0.00000000
Si      -2.69731449       0.00357566      -2.73950362       0.00000000
Si       2.73530277      -2.70762347       0.01857454       0.00000000
