10
Lattice="16.28999089631971 0.0 0.0 0.0 16.28999089631971 0.0 0.0 0.0 34.397273925272025" Properties=species:S:1:pos:R:3:initial_magmoms:R:1 pbc="T T T"
Si       2.25932526       0.04974966      -0.57529473       0.00000000
Si       0.28329939      -0.20412999       2.32171410       0.00000000
Si      -0.70911999       2.23220241      -0.34672471       0.00000000
Si      -1.45815048      -1.26735223      -1.42593979       0.00000000
Si      -3.30449166      -0.75351187       0.16410949       0.00000000
Si      -0.80975961       0.09117513      -3.37471843       0.00000000
Si      -0.29783007       2.28604086      -2.64749086       0.00000000
Si       3.07460718      -1.83107908       0.57065109       0.00000000
Si       1.72553454      -2.04859472       2.51626519       0.00000000
Si       1.22906421       1.82143377       3.06359491       0.00000000
