10
Lattice="16.28999089631971 0.0 0.0 0.0 16.28999089631971 0.0 0.0 0.0 34.397273925272025" Properties=species:S:1:pos:R:3:initial_magmoms:R:1 pbc="T T T"
Si       1.90821060       0.20715993      -1.32140641       0.00000000
Si      -0.47206791      -2.31313832       0.07794427       0.00000000
Si      -1.72289556       0.92520684      -1.35133206       0.00000000
Si       1.04185953       0.18547794       2.13479920       0.00000000
Si      -2.99485134      -1.54580713       1.18818570       0.00000000
Si      -3.55208337       0.65691054       0.16046337       0.00000000
Si       2.85397542       2.23272369      -0.57952559       0.00000000
Si      -0.74503944       0.98214039       3.54477865       0.00000000
Si       1.51500258      -3.27375962      -1.04443941       0.00000000
Si       2.73212622       1.89879498       1.89222949       0.00000000
