10
Lattice="16.28999089631971 0.0 0.0 0.0 16.28999089631971 0.0 0.0 0.0 34.397273925272025" Properties=species:S:1:pos:R:3:initial_magmoms:R:1 pbc="T T T"
Si      -0.86084505       1.71082467       1.43691252       0.00000000
Si       1.78756686      -0.86009571       1.37117930       0.00000000
Si      -1.69026669      -1.71331704       0.24256971       0.00000000
Si       0.12184920       0.33392871      -2.47175509       0.00000000
Si      -0.82391562      -1.69163505      -3.21363591       0.00000000
Si      -2.11046724       0.48772260       3.08708968       0.00000000
Si       0.61164063      -2.25037553       3.01872506       0.00000000
Si      -2.22381306       3.10480884       0.14550055       0.00000000
Si      -2.73212622      -1.89879498      -1.89222949       0.00000000
Si      -0.92310543       2.40197679      -2.84826786       0.00000000
