10
Lattice="16.28999089631971 0.0 0.0 0.0 16.28999089631971 0.0 0.0 0.0 34.397273925272025" Properties=species:S:1:pos:R:3:initial_magmoms:R:1 pbc="T T T"
Si      -1.35609363      -1.35648459      -1.35690442       0.00000000
Si       1.35718506      -1.35698958       1.35748917       0.00000000
Si      -1.35786924       1.35762489       1.35721400       0.00000000
Si       1.35786924       1.35816246      -1.35748917       0.00000000
Si       2.71477737      -2.71405735       0.00003440       0.00000000
Si      -2.71511946       0.00092853       2.71387763       0.00000000
Si      -2.71456560      -2.71448904       0.00013759       0.00000000
Si      -0.00206883      -2.71317769      -2.71594147       0.00000000
Si       2.71609686       0.00143352       2.71408402       0.00000000
Si      -2.71477737       2.71542897       0.00034397       0.00000000
