10
Lattice="16.28999089631971 0.0 0.0 0.0 16.28999089631971 0.0 0.0 0.0 34.397273925272025" Properties=species:S:1:pos:R:3:initial_magmoms:R:1 pbc="T T T"
Si      -1.35492075       1.35575154       1.35477179       0.00000000
Si       1.35868374       1.35562122      -1.35714520       0.00000000
Si      -1.35672894      -1.35938421      -1.35735158       0.00000000
Si       1.35985662      -1.36451556       1.36113529       0.00000000
Si       0.01138671       2.70029556       2.70424639       0.00000000
Si      -2.71179630       2.71127502       0.00096312       0.00000000
Si       0.00094482       2.71332756      -2.71449679       0.00000000
Si      -2.71363707      -0.00158013      -2.71422161       0.00000000
Si      -2.71127502      -0.00928530       2.71659502       0.00000000
Si      -2.71397916      -2.71608057      -0.00068795       0.00000000
