10
Lattice="16.28999089631971 0.0 0.0 0.0 16.28999089631971 0.0 0.0 0.0 34.397273925272025" Properties=species:S:1:pos:R:3:initial_magmoms:R:1 pbc="T T T"
Si       1.65768669       1.03535982      -1.30589323       0.00000000
Si      -0.98012043      -1.67728356      -1.36227040       0.00000000
Si      -1.92088422       1.54776177      -0.24160659       0.00000000
Si       0.79421895      -0.83004066       2.22839424       0.00000000
Si       0.29688525       1.48419819       2.48744025       0.00000000
Si      -3.09886299       0.46631754       1.67762478       0.00000000
Si       2.91656160      -1.54539972       1.37224561       0.00000000
Si       0.26924112       2.31632397      -2.73056032       0.00000000
Si      -2.45342061      -0.39325689      -2.71821169       0.00000000
Si       2.53948068       2.82058092      -0.03150792       0.00000000
