10
Lattice="16.28999089631971 0.0 0.0 0.0 16.28999089631971 0.0 0.0 0.0 34.397273925272025" Properties=species:S:1:pos:R:3:initial_magmoms:R:1 pbc="T T T"
Si      -0.19258038      -0.49438521       2.31039739       0.00000000
Si      -1.68902865       1.61769474      -0.51661295       0.00000000
Si       1.87945875      -0.56104389      -1.47399281       0.00000000
Si      -1.08580995      -2.15166465      -0.72340947       0.00000000
Si       1.70742006       1.74633687       0.67993129       0.00000000
Si       2.98165644       1.49892435      -1.22574754       0.00000000
Si      -3.15428157       0.36913140      -1.91393419       0.00000000
Si       2.97541737       0.47954502       2.21360340       0.00000000
Si      -0.67452003      -2.09782620      -3.02417562       0.00000000
Si       2.95757982      -2.31116004      -0.33379133       0.00000000
