10
Lattice="16.28999089631971 0.0 0.0 0.0 16.28999089631971 0.0 0.0 0.0 34.397273925272025" Properties=species:S:1:pos:R:3:initial_magmoms:R:1 pbc="T T T"
Si       0.87408882       1.24051608       1.78511632       0.00000000
Si       0.49733370      -2.31423885      -0.25904601       0.00000000
Si      -2.34123138       0.47890971       0.56157021       0.00000000
Si      -0.29688525      -1.48419819      -2.48744025       0.00000000
Si       2.80559412      -0.20818620       1.73066541       0.00000000
Si      -2.21776947       0.06356358      -2.72904684       0.00000000
Si       2.24259543       1.33638273      -2.51894817       0.00000000
Si      -3.39574824      -1.01788065      -0.80981547       0.00000000
Si      -0.68584158       0.72211941       3.55396273       0.00000000
Si       0.64689219       3.53082492       0.95600397       0.00000000
