10
Lattice="16.28999089631971 0.0 0.0 0.0 16.28999089631971 0.0 0.0 0.0 34.397273925272025" Properties=species:S:1:pos:R:3:initial_magmoms:R:1 pbc="T T T"
Si       0.44891982      -2.05143228      -1.03281312       0.00000000
Si      -0.53631567       2.09303694      -1.09517542       0.00000000
Si       2.29848642       0.26806824       0.72430380       0.00000000
Si      -1.79957259      -0.66634245       1.52971642       0.00000000
Si       2.69457777      -1.77569145       1.88913374       0.00000000
Si       2.00885022      -1.53303561      -2.80165953       0.00000000
Si      -0.83051307      -0.39516282       3.66829933       0.00000000
Si      -2.40034779       1.54743597      -2.52586203       0.00000000
Si       1.67135400      -3.39631839       0.47788159       0.00000000
Si      -3.63793167       0.70983675       1.10738646       0.00000000
