10
Lattice="16.28999089631971 0.0 0.0 0.0 16.28999089631971 0.0 0.0 0.0 34.397273925272025" Properties=species:S:1:pos:R:3:initial_magmoms:R:1 pbc="T T T"
Si      -1.35262386       1.35840681       1.36089451       0.00000000
Si       1.36172997      -1.35827649       1.36051614       0.00000000
Si      -1.35565380      -1.35876519      -1.37879486       0.00000000
Si       1.36270737       1.37181348      -1.36174412       0.00000000
Si       0.14398731      -2.65792527      -2.72056791       0.00000000
Si      -2.71112841       2.71630863       0.00271739       0.00000000
Si      -2.71293660      -2.71559187       0.00337093       0.00000000
Si      -2.71088406      -0.00047241       2.71810850       0.00000000
Si       2.71704168       2.71492398       0.00306136       0.00000000
Si       0.00350235       2.71489140       2.71803971       0.00000000
