10
Lattice="16.28999089631971 0.0 0.0 0.0 16.28999089631971 0.0 0.0 0.0 34.397273925272025" Properties=species:S:1:pos:R:3:initial_magmoms:R:1 pbc="T T T"
Si      -1.35542574      -1.35855342       1.35745478       0.00000000
Si       1.35788553       1.35809730       1.35601009       0.00000000
Si      -1.35822762       1.35726651      -1.35745478       0.00000000
Si       1.35752715      -1.35842310      -1.35745478       0.00000000
Si       0.00211770       2.71156300       2.71418721       0.00000000
Si       2.71435383       2.71412385       0.00006879       0.00000000
Si       2.71474479      -2.71399545      -0.00044716       0.00000000
Si      -2.71435383       0.00078192      -2.71459998       0.00000000
Si      -2.71523349       2.71463286       0.00048156       0.00000000
Si       2.71401174      -0.00169416       2.71597587       0.00000000
