10
Lattice="16.28999089631971 0.0 0.0 0.0 16.28999089631971 0.0 0.0 0.0 34.397273925272025" Properties=species:S:1:pos:R:3:initial_magmoms:R:1 pbc="T T T"
Si       2.13775299       0.56213532       0.86075786       0.00000000
Si      -0.27489375       1.56134763      -1.76750491       0.00000000
Si      -1.89381024      -0.68791041       1.30393259       0.00000000
Si       0.42415902      -2.02367412      -1.23166388       0.00000000
Si       2.02217544       1.25403678      -2.33127654       0.00000000
Si       2.40904665      -1.19189043      -2.10814130       0.00000000
Si      -1.68764400       0.25231581      -3.12774587       0.00000000
Si       3.41304822      -1.23113304       0.06652436       0.00000000
Si      -1.10205108      -1.99190862      -2.99208294       0.00000000
Si       3.02647023       2.38676260      -0.29653906       0.00000000
