10
Lattice="16.28999089631971 0.0 0.0 0.0 16.28999089631971 0.0 0.0 0.0 34.397273925272025" Properties=species:S:1:pos:R:3:initial_magmoms:R:1 pbc="T T T"
Si      -1.41275025      -1.30903182      -1.36024096       0.00000000
Si       0.27489375      -1.56134763       1.76750491       0.00000000
Si      -0.49756176       2.33187182      -0.03374374       0.00000000
Si       2.29706919      -0.30731085      -0.56377163       0.00000000
Si       0.69905277      -3.58502175       0.53584103       0.00000000
Si       2.41264674      -0.99921231       2.62826277       0.00000000
Si       3.30136398       0.82541497       1.47096584       0.00000000
Si      -0.49902786       2.78289305      -2.55114404       0.00000000
Si      -0.82715733      -3.55325625      -1.22457803       0.00000000
Si       2.68394040      -2.75323806      -0.34063639       0.00000000
