10
Lattice="16.28999089631971 0.0 0.0 0.0 16.28999089631971 0.0 0.0 0.0 34.397273925272025" Properties=species:S:1:pos:R:3:initial_magmoms:R:1 pbc="T T T"
Si      -1.12583448       0.84662388      -1.86288046       0.00000000
Si       0.69185259       1.89661212       1.21146159       0.00000000
Si      -1.86174338      -0.82705959       1.24507118       0.00000000
Si       1.70015472      -1.74959487      -0.29525822       0.00000000
Si       2.09194551       0.60686766       2.68087612       0.00000000
Si      -0.61546878      -2.11851450       2.71840356       0.00000000
Si       0.85744044      -3.35355714       1.32220023       0.00000000
Si      -3.12928456      -0.36053028      -2.03569246       0.00000000
Si       3.49589916      -0.76369149       1.22284365       0.00000000
Si      -2.84233459      -2.70611109      -0.00910714       0.00000000
