10
Lattice="16.28999089631971 0.0 0.0 0.0 16.28999089631971 0.0 0.0 0.0 34.397273925272025" Properties=species:S:1:pos:R:3:initial_magmoms:R:1 pbc="T T T"
Si       0.91947276      -1.29951846       1.80857528       0.00000000
Si      -0.95322564      -1.45893240      -1.68773759       0.00000000
Si       1.83544317       1.63645481      -0.08241591       0.00000000
Si      -1.98707049       0.96062130       1.12238368       0.00000000
Si       0.39320802       3.48091955      -0.27696700       0.00000000
Si      -1.87701525      -3.06473544      -0.26368965       0.00000000
Si      -1.51500258       3.27375962       1.04443941       0.00000000
Si       1.74211776       0.17353737       3.42824062       0.00000000
Si       3.13510824       1.23512409       1.87272623       0.00000000
Si       0.58430601      -3.07146321      -2.42824251       0.00000000
