10
Lattice="16.28999089631971 0.0 0.0 0.0 16.28999089631971 0.0 0.0 0.0 34.397273925272025" Properties=species:S:1:pos:R:3:initial_magmoms:R:1 pbc="T T T"
Si      -0.82264500      -1.47305583      -1.61966534       0.00000000
Si       1.39299048       1.06158672      -1.55551439       0.00000000
Si      -1.40211288       1.49525293       1.20837691       0.00000000
Si       1.87455546      -1.44715473       1.13662415       0.00000000
Si       2.60315829      -1.01706615      -1.32013371       0.00000000
Si      -2.50859484      -2.34305586      -0.11351107       0.00000000
Si       1.22562702      -2.81522151      -1.81280614       0.00000000
Si       0.16583220      -2.56156992       2.67384748       0.00000000
Si      -2.66041764       0.08000019       2.59296913       0.00000000
Si       0.08664651       2.74864169       2.52715334       0.00000000
