10
Lattice="16.28999089631971 0.0 0.0 0.0 16.28999089631971 0.0 0.0 0.0 34.397273925272025" Properties=species:S:1:pos:R:3:initial_magmoms:R:1 pbc="T T T"
Si       0.82264500       1.47305583       1.61966534       0.00000000
Si      -0.91947276       1.29951846      -1.80857528       0.00000000
Si      -1.68594984      -0.87000003       1.50615428       0.00000000
Si       2.04827202      -1.34216568      -0.19314080       0.00000000
Si       2.21563548       2.53464255       0.06415095       0.00000000
Si      -2.16569034      -2.59418250      -0.00027518       0.00000000
Si       3.42580329       0.45598968       0.29953163       0.00000000
Si       0.91597041       2.93597327      -1.89099119       0.00000000
Si       1.29176442      -3.17941704       1.41830359       0.00000000
Si      -0.38369466      -2.30632191       2.90329985       0.00000000
