10
Lattice="16.28999089631971 0.0 0.0 0.0 16.28999089631971 0.0 0.0 0.0 34.397273925272025" Properties=species:S:1:pos:R:3:initial_magmoms:R:1 pbc="T T T"
Si      -1.35299853       1.35506736      -1.36423104       0.00000000
Si       1.36192545      -1.36059619      -1.36306154       0.00000000
Si       1.36181142       1.37657016       1.35697321       0.00000000
Si      -1.37064060      -1.36429727       1.37737081       0.00000000
Si      -2.71037907       2.70612738      -0.00261419       0.00000000
Si       2.71400767       2.71244790      -0.00753301       0.00000000
Si      -2.70915732      -2.72143612      -0.00681066       0.00000000
Si       0.00356751       2.71168227      -2.72099787       0.00000000
Si      -2.71191033      -0.00335574      -2.72082589       0.00000000
Si       2.71625388      -2.72115395      -0.00319895       0.00000000
