10
Lattice="16.28999089631971 0.0 0.0 0.0 16.28999089631971 0.0 0.0 0.0 34.397273925272025" Properties=species:S:1:pos:R:3:initial_magmoms:R:1 pbc="T T T"
Si      -1.23206157      -1.55547738       1.28470450       0.00000000
Si      -1.41696936       1.17648335      -1.53250260       0.00000000
Si       0.72246150       2.02925833       1.10453148       0.00000000
Si       1.31833341      -1.53114012      -1.51392806       0.00000000
Si       2.65525371       2.62024324      -0.16634531       0.00000000
Si      -2.82432762       2.53921678      -0.06800345       0.00000000
Si      -0.04632876       2.54078062      -2.90987341       0.00000000
Si      -2.67991677      -2.81451519      -0.16772120       0.00000000
Si       2.66992512      -0.18037332      -2.91307236       0.00000000
Si      -1.01037096       3.70838266       0.98063243       0.00000000
