10
Lattice="16.28999089631971 0.0 0.0 0.0 16.28999089631971 0.0 0.0 0.0 34.397273925272025" Properties=species:S:1:pos:R:3:initial_magmoms:R:1 pbc="T T T"
Si       0.06152733      -2.30971837       0.20641816       0.00000000
Si      -2.06224884       0.82810215      -0.71941939       0.00000000
Si       1.38028006       0.85763592      -1.69922628       0.00000000
Si       0.94166530       1.10728017       1.86144392       0.00000000
Si       2.19607838      -2.42245006       1.27197750       0.00000000
Si       2.81154716      -0.27067464       2.25044290       0.00000000
Si      -2.07014949       0.38006199      -2.99944396       0.00000000
Si      -1.10566746      -2.51051054       2.47388772       0.00000000
Si       0.19787463       0.41599773      -3.67356211       0.00000000
Si      -0.02005299      -3.20491741      -2.02651653       0.00000000
