10
Lattice="16.28999089631971 0.0 0.0 0.0 16.28999089631971 0.0 0.0 0.0 34.397273925272025" Properties=species:S:1:pos:R:3:initial_magmoms:R:1 pbc="T T T"
Si       1.35956340       1.25675721       1.50997237       0.00000000
Si       1.13665104      -2.11840047      -0.24195056       0.00000000
Si      -1.81812690      -0.77076135       1.42569901       0.00000000
Si      -0.33518304       0.30431349       2.94292921       0.00000000
Si      -2.38112559       0.77380758      -2.82391458       0.00000000
Si       1.29907863       2.58277950      -2.54423019       0.00000000
Si       2.90098740      -2.20661082       1.39553258       0.00000000
Si       1.59702273      -2.49437367      -2.57990018       0.00000000
Si      -3.74963220       0.67794093       1.48014992       0.00000000
Si       3.36108705       0.06146217       2.33045101       0.00000000
