10
Lattice="16.28999089631971 0.0 0.0 0.0 16.28999089631971 0.0 0.0 0.0 34.397273925272025" Properties=species:S:1:pos:R:3:initial_magmoms:R:1 pbc="T T T"
Si      -0.98416035      -1.59524712      -1.44258261       0.00000000
Si      -1.44588411       1.26366963       1.39876593       0.00000000
Si       1.28699145      -1.44272385       1.40096735       0.00000000
Si       1.25921042       1.32740989      -1.58736082       0.00000000
Si       2.53893401       2.63586439      -0.01122728       0.00000000
Si      -2.77206930       2.60054930      -0.05205342       0.00000000
Si      -0.08741214       2.61921438       2.77220169       0.00000000
Si       2.62521236      -0.10039527       2.77103218       0.00000000
Si      -2.69288361      -2.70966231       0.09464071       0.00000000
Si       2.83986569      -2.58455511       0.00681066       0.00000000
