10
Lattice="16.28999089631971 0.0 0.0 0.0 16.28999089631971 0.0 0.0 0.0 34.397273925272025" Properties=species:S:1:pos:R:3:initial_magmoms:R:1 pbc="T T T"
Si       1.35385931      -1.35980775      -1.35590690       0.00000000
Si       1.35558605       1.35753108       1.35752357       0.00000000
Si      -1.35876519       1.35980190      -1.35473739       0.00000000
Si      -1.35847197      -1.35752715       1.35748917       0.00000000
Si       2.71242251      -2.71544526      -0.00013759       0.00000000
Si       0.01563840      -2.70213633      -2.72597172       0.00000000
Si       2.71351394       2.71520810       0.00075674       0.00000000
Si      -2.71516833      -2.71419093      -0.00106632       0.00000000
Si       2.71481714      -0.00115009       2.71487516       0.00000000
Si      -2.71635750       2.71351394       0.00010319       0.00000000
