10
Lattice="16.28999089631971 0.0 0.0 0.0 16.28999089631971 0.0 0.0 0.0 34.397273925272025" Properties=species:S:1:pos:R:3:initial_magmoms:R:1 pbc="T T T"
Si       1.35159171       1.35076680      -1.39914430       0.00000000
Si      -1.36192545      -1.36277253      -1.40096735       0.00000000
Si       1.42211246      -1.40343237       1.49373685       0.00000000
Si      -1.31833341       1.53114012       1.51392806       0.00000000
Si      -2.55039498      -0.02433726       2.79863257       0.00000000
Si       2.53601321       0.18515214       2.82305464       0.00000000
Si      -2.69410536      -2.71243161      -0.02858415       0.00000000
Si       2.71488067       2.70812358      -0.01675148       0.00000000
Si       2.70040212      -2.73038319      -0.03708028       0.00000000
Si      -2.73530277       2.70762347      -0.01857454       0.00000000
