10
Lattice="16.28999089631971 0.0 0.0 0.0 16.28999089631971 0.0 0.0 0.0 34.397273925272025" Properties=species:S:1:pos:R:3:initial_magmoms:R:1 pbc="T T T"
Si       0.81774171       0.69419835       2.04945952       0.00000000
Si      -0.17598087      -2.35370952       0.03632354       0.00000000
Si      -2.30410647       0.58544631       0.03498205       0.00000000
Si       1.45735227       1.24545195      -1.45270088       0.00000000
Si      -2.67292836       0.02122587      -2.18309300       0.00000000
Si       0.86933214       3.03169673       1.65918783       0.00000000
Si       2.08337764      -2.96481258      -0.12885226       0.00000000
Si      -1.39763313      -1.77204249      -2.97732650       0.00000000
Si      -0.70688826      -0.13664052       3.74479891       0.00000000
Si       2.76176166      -1.78641027      -1.98269437       0.00000000
