10
Lattice="16.28999089631971 0.0 0.0 0.0 16.28999089631971 0.0 0.0 0.0 34.397273925272025" Properties=species:S:1:pos:R:3:initial_magmoms:R:1 pbc="T T T"
Si      -0.36882189      -0.56422044      -2.21807505       0.00000000
Si       2.30410647      -0.58544631      -0.03498205       0.00000000
Si      -1.28661678      -1.56962295       1.26155512       0.00000000
Si      -0.47570058       2.35343000       0.08881381       0.00000000
Si       2.12812560      -2.93915583       0.00134149       0.00000000
Si       0.51989535       1.26040684      -3.37537198       0.00000000
Si       3.12184818       0.10875204       2.01447747       0.00000000
Si      -3.34472796      -0.46081152       1.87726667       0.00000000
Si       1.01748969       3.38695883       1.57346978       0.00000000
Si       0.03442077      -2.37056967       3.06369811       0.00000000
