10
Lattice="16.28999089631971 0.0 0.0 0.0 16.28999089631971 0.0 0.0 0.0 34.397273925272025" Properties=species:S:1:pos:R:3:initial_magmoms:R:1 pbc="T T T"
Si       0.20504223       1.10283300       1.97846351       0.00000000
Si       2.16785691       0.01484019      -0.83351521       0.00000000
Si      -0.55527723      -2.16959994       0.77297597       0.00000000
Si      -1.52422272       1.12720284      -1.47739814       0.00000000
Si      -1.87737363       0.53256897       2.76224023       0.00000000
Si      -1.54717533      -1.44852309      -2.70173539       0.00000000
Si       1.83671379       0.79089579      -3.06115271       0.00000000
Si       2.53192212      -2.38757643      -1.23616992       0.00000000
Si      -1.93548006      -3.09403626      -0.86540150       0.00000000
Si      -1.78026894      -1.85349249       2.81184113       0.00000000
