10
Lattice="16.28999089631971 0.0 0.0 0.0 16.28999089631971 0.0 0.0 0.0 34.397273925272025" Properties=species:S:1:pos:R:3:initial_magmoms:R:1 pbc="T T T"
Si      -0.51139686      -1.42407180       1.83437325       0.00000000
Si      -1.76433636       0.08821035      -1.63748314       0.00000000
Si       0.46009965       2.26807299       0.93491843       0.00000000
Si       1.76636542      -1.33548678      -1.22065674       0.00000000
Si       2.88433184       0.63519597      -2.18691110       0.00000000
Si      -1.54142400       3.46336803       0.11443979       0.00000000
Si       2.95195162       2.31678009       0.64900813       0.00000000
Si       1.41321452      -1.93012065       3.01898163       0.00000000
Si      -2.90098740       2.20661082      -1.39553258       0.00000000
Si      -3.18676287      -1.93292253      -1.25058239       0.00000000
