10
Lattice="16.28999089631971 0.0 0.0 0.0 16.28999089631971 0.0 0.0 0.0 34.397273925272025" Properties=species:S:1:pos:R:3:initial_magmoms:R:1 pbc="T T T"
Si      -1.87201489      -0.77012604       1.22638875       0.00000000
Si       0.07637241       0.07358193      -2.39969276       0.00000000
Si       1.81282288      -1.56429612       0.32076787       0.00000000
Si       0.98059121       1.87905150       1.25417832       0.00000000
Si       1.94625427      -1.30437288      -2.01069377       0.00000000
Si      -0.28694998       2.34558081      -2.02658532       0.00000000
Si      -0.53286577      -2.11507731       2.71060787       0.00000000
Si       2.22686581       0.58759659       2.72751070       0.00000000
Si       0.76014679      -3.45389865       1.29142715       0.00000000
Si       2.84233459       2.70611109       0.00910714       0.00000000
