10
Lattice="16.28999089631971 0.0 0.0 0.0 16.28999089631971 0.0 0.0 0.0 34.397273925272025" Properties=species:S:1:pos:R:3:initial_magmoms:R:1 pbc="T T T"
Si       0.36332239      -2.27199888      -0.37310744       0.00000000
Si       2.00345008       1.20715416       0.17281200       0.00000000
Si      -0.52755069       0.70411896      -2.18319620       0.00000000
Si       0.28694998      -2.34558081       2.02658532       0.00000000
Si       1.26754119      -0.46652931       3.28076364       0.00000000
Si      -2.93871504       1.11767319       1.85594035       0.00000000
Si       1.16853546       3.49172892       0.35274424       0.00000000
Si       3.12928456       0.36053028       2.03569246       0.00000000
Si      -2.63065485      -0.20851200      -2.68660058       0.00000000
Si       0.88258731      -0.21126501      -3.85662451       0.00000000
