10
Lattice="16.28999089631971 0.0 0.0 0.0 16.28999089631971 0.0 0.0 0.0 34.397273925272025" Properties=species:S:1:pos:R:3:initial_magmoms:R:1 pbc="T T T"
Si      -0.69185259      -1.89661212      -1.21146159       0.00000000
Si       1.11200427       1.62461799      -1.36586289       0.00000000
Si       1.40009292      -1.28974446       1.46941453       0.00000000
Si      -1.32137964       1.41986898       1.46825190       0.00000000
Si      -1.81768707      -1.04998824      -3.07434204       0.00000000
Si      -2.55359596      -2.72367171       0.03360960       0.00000000
Si      -0.58371957       2.56608225      -2.76335612       0.00000000
Si       2.80404657      -2.66030361       0.01138206       0.00000000
Si       2.67999822       2.81062773       0.03526754       0.00000000
Si       0.02761155      -2.64370410       2.85170759       0.00000000
