10
Lattice="16.28999089631971 0.0 0.0 0.0 16.28999089631971 0.0 0.0 0.0 34.397273925272025" Properties=species:S:1:pos:R:3:initial_magmoms:R:1 pbc="T T T"
Si       0.12729006       1.00893744       2.12155625       0.00000000
Si      -0.37892169      -2.33364024       0.29664226       0.00000000
Si      -1.78303987       0.83800647      -1.37393108       0.00000000
Si       2.42004240       0.16606026      -0.39439936       0.00000000
Si       0.70161030       3.07477008       1.21460282       0.00000000
Si       2.87785656      -1.27392687       1.43319762       0.00000000
Si       2.33026821      -0.74003841      -2.54364543       0.00000000
Si       1.90897623      -0.08578314       3.18391665       0.00000000
Si       1.61399691      -3.21447312       1.13053583       0.00000000
Si      -2.54268509      -2.65900041       1.08846794       0.00000000
