10
Lattice="16.28999089631971 0.0 0.0 0.0 16.28999089631971 0.0 0.0 0.0 34.397273925272025" Properties=species:S:1:pos:R:3:initial_magmoms:R:1 pbc="T T T"
Si      -1.11551055      -1.53311706      -1.38383750       0.00000000
Si       2.27449451      -0.43723989      -0.38906778       0.00000000
Si       0.46113732      -0.92862774       2.10807251       0.00000000
Si      -0.33500385       2.37394170       0.18275282       0.00000000
Si      -3.01665129      -0.14385699      -1.49944680       0.00000000
Si       2.53001945       0.40286799       2.23912619       0.00000000
Si      -2.45479290       2.26913184       1.18522753       0.00000000
Si      -0.49014981       3.06418158      -2.09324727       0.00000000
Si       2.66382551      -2.67706602       0.06759068       0.00000000
Si      -2.06770992       1.54849482      -2.93670330       0.00000000
