10
Lattice="16.28999089631971 0.0 0.0 0.0 16.28999089631971 0.0 0.0 0.0 34.397273925272025" Properties=species:S:1:pos:R:3:initial_magmoms:R:1 pbc="T T T"
Si       1.35554140       1.35980612      -1.38390630       0.00000000
Si      -1.36328896      -1.35735678      -1.38239281       0.00000000
Si      -1.37796037       1.44325979       1.36433424       0.00000000
Si       1.39971988      -1.28864505       1.49160422       0.00000000
Si       2.46102967       0.37204568       2.87200199       0.00000000
Si      -0.17886746      -2.52297144       2.83980613       0.00000000
Si      -2.71488067      -2.70812358       0.01675148       0.00000000
Si       2.70616159       2.71770794      -0.01771461       0.00000000
Si       2.71616365      -2.71648035       0.00884010       0.00000000
Si      -0.00541317      -2.71128384      -2.74246179       0.00000000
