10
Lattice="16.28999089631971 0.0 0.0 0.0 16.28999089631971 0.0 0.0 0.0 34.397273925272025" Properties=species:S:1:pos:R:3:initial_magmoms:R:1 pbc="T T T"
Si      -1.73383985      -1.03566933      -1.19176955       0.00000000
Si      -1.55287424       1.14183126       1.39415669       0.00000000
Si       1.12362881       1.38178296      -1.59582255       0.00000000
Si       1.15172906      -1.59308055       1.37935553       0.00000000
Si       1.88938913      -0.44686728      -2.85225248       0.00000000
Si      -0.17949299      -1.77836301      -2.98330617       0.00000000
Si       2.57192384       2.49986340      -0.08516426       0.00000000
Si      -0.21465333       2.48415984       2.76422151       0.00000000
Si       2.50723625      -0.23086188       2.76181370       0.00000000
Si      -2.83986569       2.58455511      -0.00681066       0.00000000
