10
Lattice="16.28999089631971 0.0 0.0 0.0 16.28999089631971 0.0 0.0 0.0 34.397273925272025" Properties=species:S:1:pos:R:3:initial_magmoms:R:1 pbc="T T T"
Si      -0.87269114      -2.09697912      -0.49893274       0.00000000
Si      -2.17710053       0.93488310       0.03106076       0.00000000
Si       0.81083475       0.41529726      -2.19716150       0.00000000
Si       1.15437456       0.40666356       2.09317848       0.00000000
Si      -1.85318314       3.08917763       0.99160517       0.00000000
Si       0.21194919       2.68325200      -2.65591820       0.00000000
Si      -0.48274438      -0.18018369       3.77338306       0.00000000
Si       3.14388855       0.11974779      -2.22381940       0.00000000
Si      -1.55107516      -3.27538143       1.35490938       0.00000000
Si      -3.63445280      -0.31056885       1.48376164       0.00000000
