10
Lattice="10.86 0.0 0.0 0.0 10.86 0.0 0.0 0.0 10.86" Properties=species:S:1:pos:R:3:initial_magmoms:R:1 pbc="T T T"
Si       1.23446706      -1.29809580      -1.34011314       0.00000000
Si       1.23446706       1.41690420       1.37488686       0.00000000
Si      -1.48053294      -1.29809580       1.37488686       0.00000000
Si      -1.55097090       1.16607078      -1.45847628       0.00000000
Si      -2.41639344       2.55010176       0.25782726       0.00000000
Si       2.63619984       2.51710908       0.12106728       0.00000000
Si       2.59196706      -2.65559580       0.01738686       0.00000000
Si       2.59196706       0.05940420       2.73238686       0.00000000
Si      -0.12303294      -2.65559580      -2.69761314       0.00000000
Si      -0.12303294      -2.65559580       2.73238686       0.00000000
