10
Lattice="10.86 0.0 0.0 0.0 10.86 0.0 0.0 0.0 10.86" Properties=species:S:1:pos:R:3:initial_magmoms:R:1 pbc="T T T"
Si       0.93586050       1.58180244       1.11705960       0.00000000
Si       0.86542254      -1.38403098      -1.71630354       0.00000000
Si      -1.77913950      -1.13319756       1.11705960       0.00000000
Si      -1.77913950       1.58180244      -1.59794040       0.00000000
Si       2.29336050       0.22430244       2.47455960       0.00000000
Si       2.41639344      -2.55010176      -0.25782726       0.00000000
Si      -0.42163950      -2.49069756       2.47455960       0.00000000
Si       2.17511682       2.97078558      -0.26159568       0.00000000
Si      -0.42163950       2.93930244       2.47455960       0.00000000
Si       3.65086050      -1.13319756       1.11705960       0.00000000
