10
Lattice="16.2900001489832 0.0 0.0 0.0 16.2900001489832 0.0 0.0 0.0 29.05898724650998" Properties=species:S:1:pos:R:3:initial_magmoms:R:1 pbc="T T T"
Si       0.73713880      -0.80211114       1.05333406       0.00000000
Si      -1.55835028       1.31424137      -1.15855276       0.00000000
Si       0.42451740       2.11750128      -2.16213395       0.00000000
Si      -2.06897663       2.05680474       0.98847051       0.00000000
Si       2.09929232      -2.29343980       0.03196489       0.00000000
Si       2.10248516       0.59445469       2.29951321       0.00000000
Si      -0.75878821      -2.18656111       2.19436036       0.00000000
Si      -2.46770696      -0.63689828      -2.17922063       0.00000000
H       -0.06395454      -2.73442639      -2.01248016       0.00000000
Si       1.12992328       0.02508823      -3.25919789       0.00000000
