10
Lattice="16.2900001489832 0.0 0.0 0.0 16.2900001489832 0.0 0.0 0.0 29.05898724650998" Properties=species:S:1:pos:R:3:initial_magmoms:R:1 pbc="T T T"
Si       1.36979353       1.35060391      -1.33194774       0.00000000
Si       1.36278883      -1.35811360       1.33415622       0.00000000
Si      -1.32489829      -1.37818288      -1.36417416       0.00000000
Si      -1.36640521       1.39054699       1.31924896       0.00000000
Si      -0.02767671       2.70065396      -2.63843981       0.00000000
Si      -2.73634536      -0.02287116      -2.63812016       0.00000000
Si      -0.00581553      -2.68890725       2.69391341       0.00000000
Si       2.70782156       0.00933417       2.67842497       0.00000000
Si      -2.72488371       0.04324995       2.67671049       0.00000000
Si      -2.71727465      -2.70165417      -0.01874305       0.00000000
