10
Lattice="16.2900001489832 0.0 0.0 0.0 16.2900001489832 0.0 0.0 0.0 29.05898724650998" Properties=species:S:1:pos:R:3:initial_magmoms:R:1 pbc="T T T"
Si       1.09359658       0.92302399      -0.51117664       0.00000000
H        1.22696281      -0.56755990       1.61158237       0.00000000
Si       0.07876215      -0.68189941       2.57607922       0.00000000
Si      -1.61779249      -2.11616876      -0.55586937       0.00000000
Si      -0.09052353       2.44949474      -1.76658301       0.00000000
Si      -1.03987216      -2.46280367       1.66487656       0.00000000
Si       2.22578417       2.01455174       1.16189455       0.00000000
Si       2.70586676      -0.25342353      -1.74255123       0.00000000
Si      -2.71466336      -0.44082369      -1.77605624       0.00000000
Si      -0.69149422       1.49623651       2.90775850       0.00000000
