10
Lattice="16.2900001489832 0.0 0.0 0.0 16.2900001489832 0.0 0.0 0.0 29.05898724650998" Properties=species:S:1:pos:R:3:initial_magmoms:R:1 pbc="T T T"
Si       1.33415101       1.31271337       1.40997693       0.00000000
Si       1.38152233      -1.36381184      -1.35084189       0.00000000
Si      -1.37510407      -1.39198051       1.32875706       0.00000000
Si      -1.42651531       1.40677183      -1.25755383       0.00000000
Si       2.69428457       2.62700687       0.02873062       0.00000000
Si       0.01617597      -2.76037767      -2.59702104       0.00000000
Si      -0.00335574      -2.73005774       2.69816184       0.00000000
Si       2.70272279      -0.06125040       2.73172497       0.00000000
Si       2.59025663      -0.00026064      -2.84016148       0.00000000
Si      -2.78993946       0.09853821      -2.66188460       0.00000000
