10
Lattice="16.2900001489832 0.0 0.0 0.0 16.2900001489832 0.0 0.0 0.0 29.05898724650998" Properties=species:S:1:pos:R:3:initial_magmoms:R:1 pbc="T T T"
Si       1.35402481      -1.33121621      -1.38300438       0.00000000
Si       1.35529543       1.40174409       1.31178080       0.00000000
Si      -1.33885882       1.34393576      -1.39579033       0.00000000
Si      -1.34342002      -1.36255817       1.38631710       0.00000000
Si       2.70822881       0.05137166       2.66130923       0.00000000
Si      -2.71612946      -2.66303775      -0.00464944       0.00000000
Si      -2.70461243       0.04163985       2.68786914       0.00000000
Si       2.71858925      -2.68152690      -0.03475455       0.00000000
Si      -2.69226461       2.70806852      -0.04652344       0.00000000
Si      -0.03155373      -2.67781278      -2.72366982       0.00000000
