10
Lattice="16.2900001489832 0.0 0.0 0.0 16.2900001489832 0.0 0.0 0.0 29.05898724650998" Properties=species:S:1:pos:R:3:initial_magmoms:R:1 pbc="T T T"
Si       1.36133902      -1.31212693       1.38207449       0.00000000
Si      -1.34503273      -1.36744777      -1.34426875       0.00000000
Si      -1.38321649       1.35513253       1.31852249       0.00000000
Si       1.37593486       1.35148357      -1.33090162       0.00000000
Si      -0.02681334       2.71562447       2.64149100       0.00000000
Si       0.00259011       2.71019990      -2.64965658       0.00000000
Si       2.70252731      -2.67377221       0.01403549       0.00000000
Si      -0.00506619      -2.65770049       2.72532618       0.00000000
Si      -2.70782156      -0.00933417      -2.67842497       0.00000000
Si      -2.71363709      -2.69824142       0.01548844       0.00000000
