10
Lattice="16.2900001489832 0.0 0.0 0.0 16.2900001489832 0.0 0.0 0.0 29.05898724650998" Properties=species:S:1:pos:R:3:initial_magmoms:R:1 pbc="T T T"
Si      -1.36463449       1.34540577      -1.35034208       0.00000000
Si      -1.35854529      -1.33370630       1.37356021       0.00000000
Si       1.34682463       1.35815270       1.36231438       0.00000000
Si       1.36340785      -1.34530478      -1.36757406       0.00000000
Si       0.02774187       2.66887706      -2.69577319       0.00000000
Si       2.69156414      -2.68215993       0.04443119       0.00000000
Si      -0.02713914      -2.69714673      -2.70146875       0.00000000
Si      -2.71278920      -2.69019090       0.01264066       0.00000000
Si       2.71542899       2.68894634       0.00255719       0.00000000
Si      -0.00377928      -2.65634028       2.76298663       0.00000000
