10
Lattice="16.2900001489832 0.0 0.0 0.0 16.2900001489832 0.0 0.0 0.0 29.05898724650998" Properties=species:S:1:pos:R:3:initial_magmoms:R:1 pbc="T T T"
H        0.71058610      -0.52000776       1.40479862       0.00000000
Si      -1.28749645       1.18769088       1.65790240       0.00000000
Si      -0.85426390      -2.21312358      -0.51146723       0.00000000
Si       2.01427481       1.04723850      -1.07707136       0.00000000
Si       2.30391101      -0.80891417       1.11476087       0.00000000
H        1.23452137      -1.00593846      -2.48715872       0.00000000
Si      -2.74025495       2.34348268       0.26283854       0.00000000
Si      -1.53132517      -2.17127457      -2.72826114       0.00000000
Si       2.01720701      -3.03115852       1.48136905       0.00000000
Si       0.86284873      -3.83493971      -0.34231487       0.00000000
