10
Lattice="16.2900001489832 0.0 0.0 0.0 16.2900001489832 0.0 0.0 0.0 29.05898724650998" Properties=species:S:1:pos:R:3:initial_magmoms:R:1 pbc="T T T"
Si      -1.37865529       1.29813382       1.34676782       0.00000000
Si       1.32214528       1.40882437      -1.34932501       0.00000000
Si       1.38003815      -1.20721933       1.48767485       0.00000000
Si      -1.37072206      -1.33204960      -1.39105372       0.00000000
H       -0.23933268      -2.84710107       1.45425702       0.00000000
Si       2.60890380      -2.66856266       0.05428219       0.00000000
Si      -2.79287166      -0.15452694       2.54481175       0.00000000
Si       2.66320488       0.03914487      -2.72303052       0.00000000
Si      -0.09089820       2.72570798       2.67450201       0.00000000
Si      -2.63709038       2.77319334       0.00816558       0.00000000
