10
Lattice="16.2900001489832 0.0 0.0 0.0 16.2900001489832 0.0 0.0 0.0 29.05898724650998" Properties=species:S:1:pos:R:3:initial_magmoms:R:1 pbc="T T T"
Si       1.36860436       1.33079364      -1.35975719       0.00000000
Si       1.35625654      -1.33563503       1.37463539       0.00000000
Si      -1.34682463      -1.35815270      -1.36231438       0.00000000
Si      -1.35804844       1.37606355       1.33508611       0.00000000
Si       0.00581553       2.68890725      -2.69391341       0.00000000
Si      -2.70536992      -2.69185899       0.01124583       0.00000000
Si       2.71363709       2.69824142      -0.01548844       0.00000000
Si      -2.69523428       0.03842974       2.71695719       0.00000000
Si       2.70857090       0.04054092       2.70983774       0.00000000
Si       0.00607617      -2.65382184       2.76740359       0.00000000
