10
Lattice="16.2900001489832 0.0 0.0 0.0 16.2900001489832 0.0 0.0 0.0 29.05898724650998" Properties=species:S:1:pos:R:3:initial_magmoms:R:1 pbc="T T T"
Si      -1.30158730      -1.38737044      -1.33264516       0.00000000
Si       1.40265209      -1.34254036       1.30957232       0.00000000
Si       1.06745113       1.31650894      -1.62224702       0.00000000
Si      -1.41942916       1.29785689       1.37707635       0.00000000
H        1.46702854      -2.15906033      -2.44798720       0.00000000
Si      -0.56452996       2.54557316      -2.73491564       0.00000000
Si      -0.06105492       2.70627401       2.66309926       0.00000000
Si       0.09133803      -2.55932192       2.81889902       0.00000000
Si      -2.63601524      -2.74954026       0.03786386       0.00000000
Si       0.06889041      -2.63013455      -2.79239432       0.00000000
