10
Lattice="16.2900001489832 0.0 0.0 0.0 16.2900001489832 0.0 0.0 0.0 29.05898724650998" Properties=species:S:1:pos:R:3:initial_magmoms:R:1 pbc="T T T"
Si      -1.34985457      -1.34599384       1.32764701       0.00000000
Si      -1.42936606       1.31644378      -1.29489753       0.00000000
Si       1.32380686      -1.40553379      -1.32552570       0.00000000
Si       1.33724611       1.31724199       1.42432626       0.00000000
Si       0.13470201      -2.56676645       2.63242460       0.00000000
Si      -0.05494617       2.64726202      -2.65971098       0.00000000
Si      -2.78277186      -0.15767091      -2.53926148       0.00000000
Si       2.67227678       2.66961109       0.04504143       0.00000000
Si       2.68682375      -0.05336604      -2.66715009       0.00000000
Si      -2.73978255      -0.02114442       2.67935486       0.00000000
