10
Lattice="16.2900001489832 0.0 0.0 0.0 16.2900001489832 0.0 0.0 0.0 29.05898724650998" Properties=species:S:1:pos:R:3:initial_magmoms:R:1 pbc="T T T"
Si       1.49086081      -1.45907902       1.03281452       0.00000000
Si      -1.37948608      -1.25687125      -1.44179071       0.00000000
Si       1.34985457       1.41173051      -1.35734529       0.00000000
Si      -0.83098549       0.98290603       2.02096539       0.00000000
Si       2.78488956      -0.12171888       2.38763169       0.00000000
Si       0.91719217       0.61890598       3.58410643       0.00000000
Si      -2.77953503      -2.58585833      -0.13367134       0.00000000
Si       0.39346866      -3.09812997       2.25244928       0.00000000
Si      -0.06284682      -2.63712296      -2.83144960       0.00000000
Si       2.68666085       0.05825304      -2.80959724       0.00000000
