10
Lattice="16.2900001489832 0.0 0.0 0.0 16.2900001489832 0.0 0.0 0.0 29.05898724650998" Properties=species:S:1:pos:R:3:initial_magmoms:R:1 pbc="T T T"
Si      -0.84813886      -2.19683684       0.09031533       0.00000000
Si      -1.73670461       1.46849464      -0.77543907       0.00000000
Si      -0.04425993      -0.00804726       2.42061364       0.00000000
Si       1.68207284       0.03979647      -1.85899059       0.00000000
H        2.15612813       2.54813069      -1.18342726       0.00000000
Si      -0.58321459      -2.74297539      -2.16750986       0.00000000
Si       0.07868070       2.28874502       2.76990266       0.00000000
Si      -0.61346512       2.79401196      -2.27078550       0.00000000
Si      -2.84867957      -1.96934699       1.30750913       0.00000000
Si       2.67641444      -2.51216237       0.66149879       0.00000000
