10
Lattice="16.2900001489832 0.0 0.0 0.0 16.2900001489832 0.0 0.0 0.0 29.05898724650998" Properties=species:S:1:pos:R:3:initial_magmoms:R:1 pbc="T T T"
H       -0.07594398       1.00678717       1.09959208       0.00000000
Si      -2.08269281      -0.91173502       0.42824230       0.00000000
Si       1.45285624      -1.40382334       1.14611552       0.00000000
Si       0.21926340       1.64649548      -1.63450991       0.00000000
H       -0.93836917       1.76316446       2.42200847       0.00000000
H        1.24019029      -1.53160210      -2.52191327       0.00000000
H       -1.03710286      -1.18381060      -2.84176554       0.00000000
H       -2.12553551       2.33134337       0.87043290       0.00000000
Si      -2.03611970       2.12115350      -2.08239609       0.00000000
Si       0.02076975      -2.58113423       2.58996942       0.00000000
