10
Lattice="16.2900001489832 0.0 0.0 0.0 16.2900001489832 0.0 0.0 0.0 29.05898724650998" Properties=species:S:1:pos:R:3:initial_magmoms:R:1 pbc="T T T"
Si      -1.41589423       1.34895862      -1.25338677       0.00000000
Si      -1.33252201      -1.28513440       1.40513280       0.00000000
Si       1.31776327       1.38693061       1.34265598       0.00000000
Si       1.31079115      -1.33055092      -1.42771454       0.00000000
Si      -0.02192634       2.53068410      -2.60910679       0.00000000
Si      -2.64484442      -2.64759743       0.08934476       0.00000000
Si      -2.61247619       0.01166364      -2.70506102       0.00000000
Si       0.04655682      -2.68832243       2.63659456       0.00000000
Si       2.74017351       0.04284270       2.61038335       0.00000000
Si      -2.76250710       0.12302208       2.59968965       0.00000000
