10
Lattice="16.2900001489832 0.0 0.0 0.0 16.2900001489832 0.0 0.0 0.0 29.05898724650998" Properties=species:S:1:pos:R:3:initial_magmoms:R:1 pbc="T T T"
Si       1.39396789       1.18172548      -1.35572003       0.00000000
Si      -1.19658196      -1.33729498      -1.45167425       0.00000000
Si      -1.39639510       1.49196853       1.10139664       0.00000000
Si       1.41589423      -1.34895862       1.25338677       0.00000000
H       -0.87560380       1.62978193      -3.05023471       0.00000000
Si      -2.71145423       0.09958077       2.45068969       0.00000000
Si      -2.52596000      -2.66926313      -0.03734661       0.00000000
Si       0.10047672       2.63894744      -2.55736523       0.00000000
Si       0.08373060       2.82323622       2.37734481       0.00000000
Si       0.08337222      -2.63409302       2.65851957       0.00000000
