10
Lattice="16.2900001489832 0.0 0.0 0.0 16.2900001489832 0.0 0.0 0.0 29.05898724650998" Properties=species:S:1:pos:R:3:initial_magmoms:R:1 pbc="T T T"
Si       1.42998508      -1.40815648      -1.19455685       0.00000000
Si      -1.33765336      -1.37743354       1.33929966       0.00000000
Si       1.36396171       1.34747623       1.34929595       0.00000000
Si      -1.36484137       1.32551731      -1.40238672       0.00000000
Si       0.11766267      -2.77061952      -2.51034488       0.00000000
Si      -2.66541869       0.00495216       2.69373906       0.00000000
Si       2.76250710      -0.12302208      -2.59968965       0.00000000
Si      -2.69534342       2.69506649      -0.04710462       0.00000000
Si       2.70793559       2.69527826      -0.02022506       0.00000000
Si       0.02335986       2.71005329       2.69879532       0.00000000
