10
Lattice="16.2900001489832 0.0 0.0 0.0 16.2900001489832 0.0 0.0 0.0 29.05898724650998" Properties=species:S:1:pos:R:3:initial_magmoms:R:1 pbc="T T T"
Si      -1.31222467       1.31315320       1.35650258       0.00000000
Si      -1.55613484      -1.23843097      -1.17866158       0.00000000
Si       1.32134707      -1.37868787       1.30512629       0.00000000
Si       1.32317155       1.42491889      -1.28432006       0.00000000
H       -0.81826300      -2.13298004      -2.10378350       0.00000000
H       -1.39701412      -1.45469701       2.45281100       0.00000000
Si      -2.40961682      -0.32589774       2.57613734       0.00000000
Si       2.74851399      -2.46886355      -0.17807347       0.00000000
Si      -0.11642463       2.83048527      -2.48590918       0.00000000
Si       2.71309952       0.10006947      -2.63602791       0.00000000
