10
Lattice="16.2900001489832 0.0 0.0 0.0 16.2900001489832 0.0 0.0 0.0 29.05898724650998" Properties=species:S:1:pos:R:3:initial_magmoms:R:1 pbc="T T T"
Si      -1.32317155      -1.42491889       1.28432006       0.00000000
Si       1.35601219       1.26293113       1.42537238       0.00000000
Si      -1.43959618       1.40556637      -1.20158912       0.00000000
Si       1.38992797      -1.32484942      -1.35170785       0.00000000
Si      -2.63539622      -0.11176569       2.64082264       0.00000000
Si      -0.03681540       2.69583457      -2.59031812       0.00000000
Si      -2.72549621      -0.02858895      -2.55995148       0.00000000
Si       2.70418889       2.66188474       0.10661742       0.00000000
Si      -0.00182448      -2.80360677       2.58944635       0.00000000
Si       0.07659558      -2.98955712      -2.38068659       0.00000000
