10
Lattice="16.2900001489832 0.0 0.0 0.0 16.2900001489832 0.0 0.0 0.0 29.05898724650998" Properties=species:S:1:pos:R:3:initial_magmoms:R:1 pbc="T T T"
Si       1.39639510      -1.49196853      -1.10139664       0.00000000
Si      -1.31505913      -1.39238776       1.34929305       0.00000000
Si       1.48012570       1.33126768       1.27594817       0.00000000
Si      -1.36120870       1.25385760      -1.49636640       0.00000000
Si       2.79036300      -0.31024305      -2.45711667       0.00000000
Si       0.13471830       2.63830757      -2.63739269       0.00000000
Si      -2.63948501       2.64633398      -0.06900638       0.00000000
Si       0.11518659       2.66862750       2.65779019       0.00000000
Si      -2.64556118      -0.02283858       2.70457516       0.00000000
Si      -2.65440665      -2.72662022      -0.07285669       0.00000000
