10
Lattice="16.2900001489832 0.0 0.0 0.0 16.2900001489832 0.0 0.0 0.0 29.05898724650998" Properties=species:S:1:pos:R:3:initial_magmoms:R:1 pbc="T T T"
Si      -1.39396789      -1.18172548       1.35572003       0.00000000
Si      -1.29349117       1.45722196      -1.20164521       0.00000000
Si       1.51065316       1.39098682       1.09072240       0.00000000
Si       1.26203518      -1.28404297      -1.51277978       0.00000000
H       -2.26957169       0.44805645      -1.69451469       0.00000000
Si       2.06878115       0.68603707      -2.42363374       0.00000000
H       -1.40714650      -0.30832083      -3.01693108       0.00000000
Si       0.35166852       2.30785319      -2.59278610       0.00000000
Si       3.22313943       1.48981825      -0.59994982       0.00000000
Si      -2.59054985      -2.51902046      -0.09595423       0.00000000
