10
Lattice="16.2900001489832 0.0 0.0 0.0 16.2900001489832 0.0 0.0 0.0 29.05898724650998" Properties=species:S:1:pos:R:3:initial_magmoms:R:1 pbc="T T T"
Si      -1.43830927       1.28840869       1.28725502       0.00000000
Si      -1.35640315      -1.36049194      -1.32296851       0.00000000
Si       1.32561505      -1.26741088       1.44864863       0.00000000
Si       1.38849445       1.39502674      -1.28397135       0.00000000
H       -0.50134104       2.09504063       2.12290431       0.00000000
Si      -2.70765866       0.03282435      -2.64163629       0.00000000
Si       0.02681334      -2.71562447      -2.64149100       0.00000000
Si       2.70541064       0.20250099       2.64794209       0.00000000
Si       2.74646145       0.01396053      -2.61766263       0.00000000
Si       2.70902702      -2.65634516       0.12074009       0.00000000
