10
Lattice="16.2900001489832 0.0 0.0 0.0 16.2900001489832 0.0 0.0 0.0 29.05898724650998" Properties=species:S:1:pos:R:3:initial_magmoms:R:1 pbc="T T T"
Si       1.31769160      -1.31126356       1.41075571       0.00000000
Si       1.40370280       1.34232696      -1.31050221       0.00000000
Si      -1.36447322       1.38174876       1.32424711       0.00000000
Si      -1.33253504      -1.40343238      -1.35069079       0.00000000
H       -0.47011963       2.34110434       2.09320603       0.00000000
Si       2.63433086      -2.69151527       0.02109682       0.00000000
Si       0.04393902       2.63103376      -2.72564583       0.00000000
Si      -0.08235735      -2.64025064       2.71887508       0.00000000
Si      -2.70663891       2.68685471      -0.07482689       0.00000000
Si       2.74524947      -0.06121782      -2.67519942       0.00000000
