10
Lattice="16.2900001489832 0.0 0.0 0.0 16.2900001489832 0.0 0.0 0.0 29.05898724650998" Properties=species:S:1:pos:R:3:initial_magmoms:R:1 pbc="T T T"
H       -1.61937083      -1.63988173      -0.03341784       0.00000000
Si       1.51067613       1.35446464       1.18453150       0.00000000
Si      -1.38003815       1.20721933      -1.48767485       0.00000000
Si      -0.91937324      -0.47037375       2.15170177       0.00000000
Si       1.22886565      -1.46134333      -1.43339266       0.00000000
H       -0.57668050       0.71993656       3.02210561       0.00000000
H        0.14641143      -3.29973501       0.46572839       0.00000000
Si      -2.75869344       2.50535315      -0.14090703       0.00000000
Si       2.63391563       2.67998195      -0.31081493       0.00000000
Si       3.24738074      -0.11403000       1.95997057       0.00000000
