10
Lattice="16.2900001489832 0.0 0.0 0.0 16.2900001489832 0.0 0.0 0.0 29.05898724650998" Properties=species:S:1:pos:R:3:initial_magmoms:R:1 pbc="T T T"
Si       0.41884848       2.22220037       0.46465321       0.00000000
Si      -2.11389956      -0.06191829       0.94424273       0.00000000
Si       0.07234389      -0.58112947      -2.24556230       0.00000000
Si       1.77823271      -1.37146652       0.58725307       0.00000000
H       -2.16865677       1.13764474       1.86233237       0.00000000
Si       2.37534266      -0.01070253      -2.49523712       0.00000000
Si       1.41540553      -3.27318231      -0.68837835       0.00000000
Si       3.59546367      -0.40446441      -0.45590645       0.00000000
Si      -0.33277212      -2.90918226      -2.25151939       0.00000000
Si      -1.09998226       3.42601509      -0.86961925       0.00000000
