10
Lattice="16.2900001489832 0.0 0.0 0.0 16.2900001489832 0.0 0.0 0.0 29.05898724650998" Properties=species:S:1:pos:R:3:initial_magmoms:R:1 pbc="T T T"
Si       1.35298225      -1.33372747       1.37332774       0.00000000
Si       1.36782244       1.35583300      -1.34490805       0.00000000
Si      -1.34614045       1.35319402       1.38134802       0.00000000
Si      -1.34284987      -1.39155697      -1.34926690       0.00000000
Si      -0.00552231       2.68688891      -2.69507577       0.00000000
Si      -2.71142165      -0.01759320      -2.67101493       0.00000000
Si      -0.01954800      -2.67206176       2.72628512       0.00000000
Si       2.71225244      -2.68887955       0.02156177       0.00000000
Si      -2.71948520       2.71191035       0.06259306       0.00000000
Si       2.70902702       2.72378576       0.01766786       0.00000000
