10
Lattice="16.2900001489832 0.0 0.0 0.0 16.2900001489832 0.0 0.0 0.0 29.05898724650998" Properties=species:S:1:pos:R:3:initial_magmoms:R:1 pbc="T T T"
Si      -1.33493293       1.31483987      -1.40755922       0.00000000
Si       1.36282141      -1.35638947      -1.34615758       0.00000000
Si       1.35602848       1.37211714       1.33906719       0.00000000
Si      -1.37704258      -1.34402536       1.34900536       0.00000000
Si      -2.69907383       2.66943972      -0.03176147       0.00000000
Si      -0.00796581      -2.82408590      -2.55274485       0.00000000
Si      -0.01247814      -2.69433605       2.69725520       0.00000000
Si       2.72033228       0.01959231       2.68795632       0.00000000
Si      -0.00324171       2.72726922       2.69083316       0.00000000
Si       2.70040961       2.72783937      -0.03042476       0.00000000
