10
Lattice="16.2900001489832 0.0 0.0 0.0 16.2900001489832 0.0 0.0 0.0 29.05898724650998" Properties=species:S:1:pos:R:3:initial_magmoms:R:1 pbc="T T T"
Si      -1.35298225       1.33372747      -1.37332774       0.00000000
Si      -1.37253025      -1.33833428       1.35295739       0.00000000
Si       1.35927019      -1.35515208      -1.35176597       0.00000000
Si       1.33977106       1.36063855       1.36885265       0.00000000
Si      -2.69912270       2.68692149       0.00802028       0.00000000
Si      -0.01959687      -2.68870672       2.70248581       0.00000000
Si       2.69627195       2.70935282       0.00735192       0.00000000
Si       0.01484019       2.68956047      -2.71823579       0.00000000
Si       0.00324171      -2.72726922      -2.69083316       0.00000000
Si      -2.69583212      -0.05782950      -2.72259463       0.00000000
