10
Lattice="16.2900001489832 0.0 0.0 0.0 16.2900001489832 0.0 0.0 0.0 29.05898724650998" Properties=species:S:1:pos:R:3:initial_magmoms:R:1 pbc="T T T"
Si       0.32407326      -0.65518381      -2.19499966       0.00000000
Si       1.75958066       1.03974184       1.15067778       0.00000000
Si      -0.66042919      -1.84378367       1.35397445       0.00000000
Si      -1.60788817       1.75886390      -0.03861939       0.00000000
Si      -1.89584651      -0.43502445       2.77902719       0.00000000
H        3.03210660       0.75525328      -1.61076872       0.00000000
Si      -3.20960244       0.75981448       1.29757096       0.00000000
Si      -2.62800056      -1.37945350      -1.97882985       0.00000000
Si      -0.48925386       3.53976816       0.87258327       0.00000000
Si       2.68941386      -0.43505703      -2.48117257       0.00000000
