10
Lattice="16.2900001489832 0.0 0.0 0.0 16.2900001489832 0.0 0.0 0.0 29.05898724650998" Properties=species:S:1:pos:R:3:initial_magmoms:R:1 pbc="T T T"
Si      -1.34796330       1.34775316      -1.36501687       0.00000000
Si      -1.37350602      -1.34454403       1.34415251       0.00000000
Si       1.27791793       1.43299873       1.37082866       0.00000000
Si       1.32732550      -1.37256283      -1.39622622       0.00000000
Si       2.58771539       0.05945850       2.69992862       0.00000000
Si       0.03215646       2.70262505      -2.69219893       0.00000000
Si      -2.68894797       2.72108162      -0.00095895       0.00000000
Si      -2.70560296      -2.70545951      -0.03809633       0.00000000
Si      -2.68153032      -0.01425375      -2.74005908       0.00000000
Si      -0.06703335      -2.75304261       2.67354306       0.00000000
