10
Lattice="16.2900001489832 0.0 0.0 0.0 16.2900001489832 0.0 0.0 0.0 29.05898724650998" Properties=species:S:1:pos:R:3:initial_magmoms:R:1 pbc="T T T"
H       -0.97608052      -1.00916551      -0.49286948       0.00000000
Si      -1.36215352       1.49132866       1.02136918       0.00000000
Si       1.29349117      -1.45722196       1.20164521       0.00000000
Si       1.64515970       0.85063123      -1.39114090       0.00000000
H       -0.11365533      -1.76554280      -1.81528587       0.00000000
H       -2.16324686      -0.44098659      -2.04444505       0.00000000
H       -2.09929232       2.29343980      -0.03196489       0.00000000
Si      -2.85808053       0.10687869       2.16239548       0.00000000
Si       2.80414434      -0.06623514       2.29236761       0.00000000
Si       3.36227232      -0.77118490      -1.22198853       0.00000000
