10
Lattice="16.2900001489832 0.0 0.0 0.0 16.2900001489832 0.0 0.0 0.0 29.05898724650998" Properties=species:S:1:pos:R:3:initial_magmoms:R:1 pbc="T T T"
Si       0.25114293       2.33049629      -0.00607333       0.00000000
Si       0.93299347      -1.13269258      -1.84434486       0.00000000
Si      -2.30299877      -0.57042694       0.24967482       0.00000000
Si       1.22012101      -0.39376188       2.03933067       0.00000000
Si      -0.59710996      -1.36076399       3.08249019       0.00000000
Si      -2.37534266       0.01070253       2.49523712       0.00000000
Si       2.29710179      -2.57312623      -0.61459758       0.00000000
Si       3.16244289      -1.49619905       1.28402947       0.00000000
Si       2.39998943       2.90071146      -0.56098375       0.00000000
Si       0.04922838       3.12139209       2.19680132       0.00000000
