10
Lattice="16.2900001489832 0.0 0.0 0.0 16.2900001489832 0.0 0.0 0.0 29.05898724650998" Properties=species:S:1:pos:R:3:initial_magmoms:R:1 pbc="T T T"
Si      -1.32958981      -1.41802822       1.31712766       0.00000000
Si      -1.40173822       1.25366212      -1.41897941       0.00000000
Si       1.28298412      -1.41617116      -1.39239043       0.00000000
Si       1.31084002       1.41358105       1.39520915       0.00000000
Si      -2.60428232      -2.63034632      -0.21088107       0.00000000
Si       2.62332533       2.69873012      -0.08424200       0.00000000
Si       2.58649364       0.01422117       2.74276157       0.00000000
Si      -2.77457799       2.57716045      -0.05733338       0.00000000
Si      -0.06670755       2.60603122      -2.79826424       0.00000000
Si       2.62964585      -2.78239719      -0.04036293       0.00000000
