10
Lattice="16.2900001489832 0.0 0.0 0.0 16.2900001489832 0.0 0.0 0.0 29.05898724650998" Properties=species:S:1:pos:R:3:initial_magmoms:R:1 pbc="T T T"
Si       1.46644210      -1.32908482       1.20149032       0.00000000
Si       1.14344398       1.52712235      -1.31762602       0.00000000
Si      -1.32147739       1.37455021       1.34455934       0.00000000
Si      -1.33708321      -1.30391677      -1.43842481       0.00000000
Si      -0.82034812       2.71021619      -1.88287708       0.00000000
Si      -2.53283438       2.61138476      -0.19220486       0.00000000
Si       0.04957047      -2.63151920       2.54353315       0.00000000
Si       2.35206425       0.23398956      -2.83130430       0.00000000
Si       2.77931838       0.11984553       2.50854613       0.00000000
Si      -2.71077005      -2.64083708      -0.10153501       0.00000000
