10
Lattice="16.2900001489832 0.0 0.0 0.0 16.2900001489832 0.0 0.0 0.0 29.05898724650998" Properties=species:S:1:pos:R:3:initial_magmoms:R:1 pbc="T T T"
Si       1.36788760      -1.32007645       1.35650258       0.00000000
Si       1.41687163       1.30243438      -1.34204283       0.00000000
Si      -1.34736220      -1.36580248      -1.36474952       0.00000000
Si      -1.33095817       1.36407574       1.39302973       0.00000000
Si      -0.04957047       2.63151920      -2.54353315       0.00000000
Si       2.73266382      -2.62863587      -0.03498702       0.00000000
Si      -0.01027899      -2.67506237       2.68894433       0.00000000
Si       2.70992297       0.07402176       2.68333594       0.00000000
Si      -2.76034053      -0.00931788      -2.64506816       0.00000000
Si      -2.72482832      -2.71195922      -0.02379931       0.00000000
