10
Lattice="16.2900001489832 0.0 0.0 0.0 16.2900001489832 0.0 0.0 0.0 29.05898724650998" Properties=species:S:1:pos:R:3:initial_magmoms:R:1 pbc="T T T"
Si      -1.59971059       1.44904438      -0.84520970       0.00000000
Si       1.63325170       0.62320654      -1.53326840       0.00000000
Si       1.20700756       0.77882491       1.83016408       0.00000000
Si      -0.42881796      -2.06610959      -1.00268035       0.00000000
Si      -1.39779604       0.65814859      -3.04808435       0.00000000
Si       1.23100273       3.01575144       1.10427057       0.00000000
Si      -0.95951359       3.35816724       0.41243421       0.00000000
Si       2.81518896      -1.27790164      -1.89298961       0.00000000
Si      -3.60543315       0.56055520      -0.08212070       0.00000000
Si       2.52970670       2.66046653      -0.81263458       0.00000000
