10
Lattice="16.2900001489832 0.0 0.0 0.0 16.2900001489832 0.0 0.0 0.0 29.05898724650998" Properties=species:S:1:pos:R:3:initial_magmoms:R:1 pbc="T T T"
H       -1.02734515       1.10219770      -0.28370289       0.00000000
Si       0.90176554      -0.48822759      -2.06036937       0.00000000
Si      -1.26167680      -1.65203408       1.01009040       0.00000000
Si       1.54794097       1.08405064       1.37826777       0.00000000
H       -2.32357304      -0.55182376       1.67362331       0.00000000
Si       0.92576071       1.74869894      -2.78626287       0.00000000
Si       0.25681185       2.52216443       2.68201114       0.00000000
Si       0.19108170      -2.80782588       2.40515426       0.00000000
Si      -2.81222418       1.72204850      -1.78419276       0.00000000
Si       2.95661874       2.33784308       0.05468901       0.00000000
