10
Lattice="16.2900001489832 0.0 0.0 0.0 16.2900001489832 0.0 0.0 0.0 29.05898724650998" Properties=species:S:1:pos:R:3:initial_magmoms:R:1 pbc="T T T"
Si      -1.29402874      -1.33736014      -1.35481716       0.00000000
Si       1.39507561      -1.25426485       1.38018566       0.00000000
Si      -1.86769739       0.74062486       1.19647474       0.00000000
Si       1.38934153       1.42997840      -1.22498161       0.00000000
H        2.54213597      -0.31320783       1.68707762       0.00000000
Si       2.25468263       2.50690559       0.67364544       0.00000000
Si       0.20712735      -1.24260121       3.39969809       0.00000000
Si      -2.78488956       0.12171888      -2.38763169       0.00000000
Si      -2.04825575      -0.76794319       2.95181192       0.00000000
Si       2.69737967       0.03733668      -2.57026742       0.00000000
