10
Lattice="16.2900001489832 0.0 0.0 0.0 16.2900001489832 0.0 0.0 0.0 29.05898724650998" Properties=species:S:1:pos:R:3:initial_magmoms:R:1 pbc="T T T"
Si       1.34666173      -1.36622602       1.35202750       0.00000000
Si       1.37227939       1.32972013      -1.36678947       0.00000000
Si      -1.31211064      -1.36197433      -1.41023265       0.00000000
Si      -1.28298412       1.41617116       1.39239043       0.00000000
Si      -2.61257393      -0.00185706       2.70951809       0.00000000
Si       2.62245708       0.09290187       2.70277640       0.00000000
Si      -2.68472234       2.66983328      -0.02658897       0.00000000
Si      -2.65461842      -2.74297539      -0.09513912       0.00000000
Si       0.01145187       2.65628000      -2.74883490       0.00000000
Si       2.68772133      -2.73590553      -0.02167800       0.00000000
