10
Lattice="16.2900001489832 0.0 0.0 0.0 16.2900001489832 0.0 0.0 0.0 29.05898724650998" Properties=species:S:1:pos:R:3:initial_magmoms:R:1 pbc="T T T"
Si       1.18193725      -1.90110818      -0.35972120       0.00000000
Si      -1.63325170      -0.62320654       1.53326840       0.00000000
Si      -0.88220125       0.60515722      -2.06972637       0.00000000
Si       0.89645500       2.03726000       0.72063382       0.00000000
Si      -0.29163987       2.69693984      -1.23276942       0.00000000
Si       2.63264321      -1.21438693       1.29574024       0.00000000
Si      -3.03104775       0.03494205      -1.51481595       0.00000000
Si      -0.42624414       0.15561837       3.36343248       0.00000000
Si      -3.23296230       0.82583785       0.68805870       0.00000000
Si      -2.06206967      -2.68931612       0.53058805       0.00000000
