10
Lattice="16.2900001489832 0.0 0.0 0.0 16.2900001489832 0.0 0.0 0.0 29.05898724650998" Properties=species:S:1:pos:R:3:initial_magmoms:R:1 pbc="T T T"
Si       1.37401623       1.34748894      -1.34580888       0.00000000
Si       1.36082752      -1.32655987       1.38204543       0.00000000
Si      -1.36114354       1.36592238       1.34296110       0.00000000
Si      -1.34659657      -1.35705475      -1.36923042       0.00000000
Si       0.00596214       2.68999216      -2.70870444       0.00000000
Si       2.70181218      -2.69988833       0.01798751       0.00000000
Si      -0.01145187      -2.65628000       2.74883490       0.00000000
Si      -2.69617421       0.01355328       2.72224593       0.00000000
Si      -2.70961346      -2.70922250      -0.02760604       0.00000000
Si      -0.01327635       2.76372722       2.65790933       0.00000000
