10
Lattice="16.2900001489832 0.0 0.0 0.0 16.2900001489832 0.0 0.0 0.0 29.05898724650998" Properties=species:S:1:pos:R:3:initial_magmoms:R:1 pbc="T T T"
Si       1.36155079       1.26158558      -1.45422796       0.00000000
Si       1.30888522      -1.37026920       1.41560856       0.00000000
Si      -1.33444423      -1.38528044      -1.39009477       0.00000000
Si      -0.92919790       1.86607490       1.13725252       0.00000000
Si       2.63570573       2.67094752      -0.06480154       0.00000000
Si       2.64569150      -2.72374667      -0.03664338       0.00000000
H       -3.20826666      -0.38650306       2.01361346       0.00000000
Si      -0.02280600       2.60220372      -2.82055248       0.00000000
Si      -2.72364241       2.70305511      -0.13460123       0.00000000
Si       0.78415174       3.62461300       1.07759442       0.00000000
