10
Lattice="16.2900001489832 0.0 0.0 0.0 16.2900001489832 0.0 0.0 0.0 29.05898724650998" Properties=species:S:1:pos:R:3:initial_magmoms:R:1 pbc="T T T"
Si       1.36096895       1.36189288      -1.34357133       0.00000000
Si      -1.35612622       1.34897491       1.36170414       0.00000000
Si       1.37766453      -1.35747829       1.33813730       0.00000000
Si      -1.34874685      -1.35980776      -1.36690570       0.00000000
Si       2.71837748      -0.05714532      -2.62327101       0.00000000
Si      -2.69635340       2.69713532      -0.00130765       0.00000000
Si      -2.69312798      -2.71552999       0.00258625       0.00000000
Si       0.02233359      -2.70266578       2.70992491       0.00000000
Si       0.00229689       2.73782774       2.67673955       0.00000000
Si       2.72983913       0.00897579       2.69155963       0.00000000
