10
Lattice="16.2900001489832 0.0 0.0 0.0 16.2900001489832 0.0 0.0 0.0 29.05898724650998" Properties=species:S:1:pos:R:3:initial_magmoms:R:1 pbc="T T T"
Si       1.68295250      -1.04941810       1.19897381       0.00000000
Si      -1.23541732       1.40875921       1.42505273       0.00000000
Si       0.66042919       1.84378367      -1.35397445       0.00000000
Si      -1.06968286      -2.08529921      -0.63900713       0.00000000
Si       0.34852455      -2.41158791       2.56948283       0.00000000
Si      -2.54917325       2.60359814      -0.05640349       0.00000000
Si      -3.29027052      -1.41731146      -0.69000565       0.00000000
Si      -3.26627535       0.81961507      -1.41589915       0.00000000
Si       2.42000984       2.88352551      -0.20329667       0.00000000
Si      -2.64409508       0.15496677       2.74863149       0.00000000
