10
Lattice="16.2900001489832 0.0 0.0 0.0 16.2900001489832 0.0 0.0 0.0 29.05898724650998" Properties=species:S:1:pos:R:3:initial_magmoms:R:1 pbc="T T T"
Si      -1.32380686       1.40553379       1.32552570       0.00000000
Si       1.36301689       1.35216775      -1.34162438       0.00000000
Si       1.38605095      -1.30903183       1.36620829       0.00000000
Si      -1.35920503      -1.36288657      -1.34740712       0.00000000
Si      -2.67366143       0.05953995       2.65317271       0.00000000
Si       0.04354317      -2.69003288       2.68130181       0.00000000
Si      -0.01295055       2.69421941      -2.68693926       0.00000000
Si       2.71516835      -0.01453068      -2.68621278       0.00000000
Si       2.71446788      -2.69104286       0.01792940       0.00000000
Si      -2.74333377      -0.01633887      -2.66645267       0.00000000
