10
Lattice="16.2900001489832 0.0 0.0 0.0 16.2900001489832 0.0 0.0 0.0 29.05898724650998" Properties=species:S:1:pos:R:3:initial_magmoms:R:1 pbc="T T T"
Si       0.67706128      -0.04184901       2.21679390       0.00000000
Si      -0.78654637      -2.01831473      -0.94145307       0.00000000
Si       2.30092994       0.02221956      -0.62534941       0.00000000
Si      -1.93746746       1.42604779       0.31677202       0.00000000
H        2.76584655       1.16533611       0.24110242       0.00000000
H        1.54846225      -1.08892135      -2.65407354       0.00000000
H       -1.08175375      -2.65802303       1.79264892       0.00000000
Si      -3.53478342      -0.28554741       0.56118716       0.00000000
Si       0.40140189      -2.02997837      -2.96096551       0.00000000
Si      -2.49854393       1.86662713      -1.86904500       0.00000000
