10
Lattice="16.2900001489832 0.0 0.0 0.0 16.2900001489832 0.0 0.0 0.0 29.05898724650998" Properties=species:S:1:pos:R:3:initial_magmoms:R:1 pbc="T T T"
Si       1.35018037       1.31818681      -1.39276820       0.00000000
Si       1.35268903      -1.36907677       1.35978625       0.00000000
Si      -1.35668008      -1.36067113      -1.36673135       0.00000000
Si      -1.34154667       1.40354478       1.36469722       0.00000000
Si      -0.11091861      -2.63029745       2.69629625       0.00000000
Si       2.63858906       0.06507855       2.71814861       0.00000000
Si      -2.70131045       2.69225158      -0.05044640       0.00000000
Si       2.70249473       2.69436277      -0.05756585       0.00000000
Si       2.71137278      -0.08601120      -2.69432024       0.00000000
Si      -2.74524947       0.06121782       2.67519942       0.00000000
