10
Lattice="16.2900001489832 0.0 0.0 0.0 16.2900001489832 0.0 0.0 0.0 29.05898724650998" Properties=species:S:1:pos:R:3:initial_magmoms:R:1 pbc="T T T"
Si       1.30647267      -1.40849857       1.32939055       0.00000000
Si       1.37350602       1.34454403      -1.34415251       0.00000000
Si      -1.33209694      -1.36091548      -1.38224885       0.00000000
Si      -1.34105960       1.36967950       1.37370550       0.00000000
Si       2.64288800      -0.00964368       2.64053205       0.00000000
Si       2.61022654      -2.75335212      -0.11722395       0.00000000
Si      -2.66320488      -0.03914487       2.72303052       0.00000000
Si       0.02554272       2.69229719      -2.70916938       0.00000000
Si      -2.67141504      -0.00807984      -2.73683354       0.00000000
Si      -2.69031144      -2.72018567      -0.04039199       0.00000000
