10
Lattice="16.2900001489832 0.0 0.0 0.0 16.2900001489832 0.0 0.0 0.0 29.05898724650998" Properties=species:S:1:pos:R:3:initial_magmoms:R:1 pbc="T T T"
Si       1.36479250      -1.28814968      -1.38367274       0.00000000
Si       1.29192733       1.43870023       1.31631400       0.00000000
Si      -1.27338931      -1.40985553       1.38701452       0.00000000
Si      -1.35544204       1.39450546      -1.35019678       0.00000000
H       -1.19922094       1.24760224       2.47684278       0.00000000
Si      -2.41671926       0.34513623       2.33959718       0.00000000
Si       2.70695819      -2.59325562       0.01540126       0.00000000
Si       0.01692531      -2.68595452      -2.69862097       0.00000000
Si      -2.71272485       0.01229895      -2.67720449       0.00000000
Si      -2.69094512      -2.71482529       0.04230989       0.00000000
