10
Lattice="16.2900001489832 0.0 0.0 0.0 16.2900001489832 0.0 0.0 0.0 29.05898724650998" Properties=species:S:1:pos:R:3:initial_magmoms:R:1 pbc="T T T"
Si       1.35278677       1.37112931       1.33180826       0.00000000
Si      -1.36616086       1.29660256      -1.39250957       0.00000000
Si       1.52233309      -1.21411000      -1.30808159       0.00000000
Si      -1.38841300      -1.38784285       1.30972343       0.00000000
Si       0.19170072      -2.54114228      -2.61100696       0.00000000
Si      -2.72723924       2.63396270       0.00204575       0.00000000
Si       2.66716632      -0.01053963       2.71347592       0.00000000
Si       0.01156590       2.64306881      -2.74990427       0.00000000
Si      -0.01198944       2.67968873       2.72329786       0.00000000
Si      -2.68372865      -0.14356377      -2.72741261       0.00000000
