10
Lattice="16.2900001489832 0.0 0.0 0.0 16.2900001489832 0.0 0.0 0.0 29.05898724650998" Properties=species:S:1:pos:R:3:initial_magmoms:R:1 pbc="T T T"
Si      -1.34022718       1.34816041      -1.36301180       0.00000000
Si       1.35842311       1.38885283       1.31503541       0.00000000
Si      -1.35650089      -1.34871427       1.36150073       0.00000000
Si       1.35612622      -1.34897491      -1.36170414       0.00000000
Si       2.70699077       0.02834460       2.65416072       0.00000000
Si      -2.66993102       2.70192458       0.02536850       0.00000000
Si       0.03793941       2.70314633      -2.69545354       0.00000000
Si       0.01796787      -2.69477327       2.70687372       0.00000000
Si      -2.69627195      -2.70935282      -0.00735192       0.00000000
Si      -2.68143176      -0.01979235      -2.72558771       0.00000000
