10
Lattice="16.2900001489832 0.0 0.0 0.0 16.2900001489832 0.0 0.0 0.0 29.05898724650998" Properties=species:S:1:pos:R:3:initial_magmoms:R:1 pbc="T T T"
Si       1.34856766      -1.36050823       1.33912531       0.00000000
Si       1.37288700       1.35229807      -1.33363316       0.00000000
Si      -1.31178484       1.37119447       1.37887800       0.00000000
Si      -1.35842311      -1.38885283      -1.31503541       0.00000000
Si       2.65392121       0.05672178       2.65834521       0.00000000
Si      -2.64676664      -0.01889640       2.70181746       0.00000000
Si      -2.69865029      -0.04069242      -2.67804721       0.00000000
Si       0.02155167       2.70839171      -2.68365559       0.00000000
Si      -2.69004917       2.70772382       0.03859033       0.00000000
Si       2.72307389      -0.01459584      -2.67952921       0.00000000
