10
Lattice="16.2900001489832 0.0 0.0 0.0 16.2900001489832 0.0 0.0 0.0 29.05898724650998" Properties=species:S:1:pos:R:3:initial_magmoms:R:1 pbc="T T T"
Si      -1.40815274      -1.32289625       1.31480294       0.00000000
Si       1.34242519      -1.37871719      -1.33601600       0.00000000
Si      -1.37816285       1.32991561      -1.35839142       0.00000000
Si       1.31299079       1.42091155       1.33462117       0.00000000
Si       2.58014429       2.73308735      -0.12108880       0.00000000
Si      -0.06598704      -2.62800219       2.71387694       0.00000000
Si       2.70218897      -2.66742399       0.07912762       0.00000000
Si       2.67961103      -0.04108338      -2.71788708       0.00000000
Si      -2.72710518       2.68387526       0.00072647       0.00000000
Si      -0.02086016      -2.73913453      -2.68891527       0.00000000
