10
Lattice="16.2900001489832 0.0 0.0 0.0 16.2900001489832 0.0 0.0 0.0 29.05898724650998" Properties=species:S:1:pos:R:3:initial_magmoms:R:1 pbc="T T T"
Si      -1.31131406      -1.21678156       1.50932670       0.00000000
Si      -1.40265209       1.34254036      -1.30957232       0.00000000
Si       1.27585888       1.30758202       1.48053215       0.00000000
Si       1.24156354      -1.46274427      -1.46564814       0.00000000
H        2.78115752       1.06499134      -1.92550661       0.00000000
Si       2.52165781      -2.63352287       0.11260358       0.00000000
Si      -2.64194643      -2.54381384       0.20640134       0.00000000
Si       2.24919127       0.08599491      -2.94873167       0.00000000
Si      -2.70423939      -0.04483008      -2.64221747       0.00000000
H        0.06437645      -0.81651997      -3.75755952       0.00000000
