10
Lattice="16.2900001489832 0.0 0.0 0.0 16.2900001489832 0.0 0.0 0.0 29.05898724650998" Properties=species:S:1:pos:R:3:initial_magmoms:R:1 pbc="T T T"
Si      -1.35837424      -1.40841712      -1.28602292       0.00000000
Si       1.34394586      -1.33641532       1.39876016       0.00000000
Si      -1.33294555       1.25071363       1.48863380       0.00000000
Si       1.17545383       1.49046985      -1.44082014       0.00000000
Si       0.06105492      -2.70627401      -2.66309926       0.00000000
Si       2.65828042       2.73061128      -0.06339509       0.00000000
Si      -2.79938766       2.57979845       0.28714348       0.00000000
Si      -2.85443157      -0.12370626      -2.53454230       0.00000000
Si      -0.44732340       2.81378802      -2.54416083       0.00000000
Si       2.68210943       0.01453068       2.77778927       0.00000000
