10
Lattice="16.2900001489832 0.0 0.0 0.0 16.2900001489832 0.0 0.0 0.0 29.05898724650998" Properties=species:S:1:pos:R:3:initial_magmoms:R:1 pbc="T T T"
Si       1.06189624      -1.10021032      -0.66353291       0.00000000
Si      -0.62061643       1.02622114       1.23450831       0.00000000
H        1.29622789       1.65402146      -1.95732620       0.00000000
Si      -1.50211720      -0.84896965       2.31413860       0.00000000
Si       2.32357304       0.55182376      -1.67362331       0.00000000
Si      -0.37204731      -2.09650673      -2.24079662       0.00000000
H       -2.60604164       1.54131094      -1.12830236       0.00000000
Si       1.22578993       1.81465715       2.40910918       0.00000000
Si       2.51465474      -2.25600212       0.73153094       0.00000000
Si      -1.21218778      -0.03528414      -3.32013459       0.00000000
