10
Lattice="16.2900001489832 0.0 0.0 0.0 16.2900001489832 0.0 0.0 0.0 29.05898724650998" Properties=species:S:1:pos:R:3:initial_magmoms:R:1 pbc="T T T"
Si       1.37865529      -1.29813382      -1.34676782       0.00000000
Si       1.28775709       1.42757416       1.32773419       0.00000000
Si      -1.41421636      -1.45266076       1.19804393       0.00000000
Si      -1.25843509       1.47505951      -1.33860225       0.00000000
Si      -0.32451309       2.60402168       2.55910877       0.00000000
Si       2.75869344      -2.50535315       0.14090703       0.00000000
H       -1.41810967       1.68099770       3.07028542       0.00000000
Si      -2.81035083      -2.51136416      -0.33452706       0.00000000
Si       0.00793323      -2.63018342      -2.73782154       0.00000000
Si       2.70080057       0.11069055      -2.69609284       0.00000000
