10
Lattice="16.2900001489832 0.0 0.0 0.0 16.2900001489832 0.0 0.0 0.0 29.05898724650998" Properties=species:S:1:pos:R:3:initial_magmoms:R:1 pbc="T T T"
Si      -1.38934153       1.47611836       1.10607223       0.00000000
Si      -1.33064866      -1.26123697      -1.43943693       0.00000000
Si       1.47535273      -1.22363965       1.37292091       0.00000000
Si       1.42894252       1.35729910      -1.29722225       0.00000000
H        2.56033190      -0.15775236       1.54808849       0.00000000
H        0.20931021      -2.86984191       1.16206890       0.00000000
Si       0.00679293       2.53482176       2.63864322       0.00000000
Si      -2.65919591      -2.61830801      -0.12454682       0.00000000
Si       2.70045848      -2.67874391       0.00154013       0.00000000
Si       0.05308911      -2.72293868      -2.66497066       0.00000000
