10
Lattice="16.2900001489832 0.0 0.0 0.0 16.2900001489832 0.0 0.0 0.0 29.05898724650998" Properties=species:S:1:pos:R:3:initial_magmoms:R:1 pbc="T T T"
Si       0.05475721      -1.19956303      -0.91808964       0.00000000
H       -1.14821532       0.89902882       1.28824302       0.00000000
Si      -2.54635345       0.42795459       0.94383591       0.00000000
Si       1.03659950       1.80154370       2.09707087       0.00000000
Si      -2.55804967       0.85141315      -1.41215054       0.00000000
Si       2.16865677      -1.13764474      -1.86233237       0.00000000
Si      -0.93186620       2.51586020      -1.51475783       0.00000000
Si      -0.74906959      -2.96975336       0.35603071       0.00000000
Si       2.58750525       1.08455563      -1.39767917       0.00000000
Si      -1.62241723      -0.92963773      -2.58604645       0.00000000
