10
Lattice="16.2900001489832 0.0 0.0 0.0 16.2900001489832 0.0 0.0 0.0 29.05898724650998" Properties=species:S:1:pos:R:3:initial_magmoms:R:1 pbc="T T T"
Si      -0.84053143      -0.70588236       2.04406728       0.00000000
Si      -1.88045246       1.00309015      -0.99808903       0.00000000
Si       1.10521135      -1.40728090      -1.54399117       0.00000000
Si       1.74609254       1.42443752       0.78773103       0.00000000
H       -1.59299911      -1.81702327       0.01534315       0.00000000
H       -0.37561482       0.43723419       2.91051910       0.00000000
Si      -0.57876742       2.89373526      -1.13309709       0.00000000
Si       0.87193855       3.58045651       0.52236435       0.00000000
Si       2.62101215       0.01681209      -2.64646009       0.00000000
Si       2.28933146      -2.93375165      -0.28858480       0.00000000
