10
Lattice="16.2900001489832 0.0 0.0 0.0 16.2900001489832 0.0 0.0 0.0 29.05898724650998" Properties=species:S:1:pos:R:3:initial_magmoms:R:1 pbc="T T T"
Si      -1.63198108       1.22906422      -1.11266862       0.00000000
Si      -1.06745113      -1.31650894       1.62224702       0.00000000
Si       1.14323384       1.79538608       0.99518314       0.00000000
Si       1.50553973      -1.07759980      -1.55058756       0.00000000
Si      -0.24156441       2.66435984      -2.28002626       0.00000000
Si       1.66081927       2.97263181      -0.96252083       0.00000000
H        0.39957741      -3.47556927      -0.82574018       0.00000000
Si      -2.36903843      -2.70387938       0.28960187       0.00000000
H        3.11635848      -1.59405796       1.00631273       0.00000000
Si       2.58439223      -2.57305439      -0.01691233       0.00000000
