10
Lattice="16.2900001489832 0.0 0.0 0.0 16.2900001489832 0.0 0.0 0.0 29.05898724650998" Properties=species:S:1:pos:R:3:initial_magmoms:R:1 pbc="T T T"
Si      -1.35133533       1.35609364      -1.35002243       0.00000000
Si      -1.37288700      -1.35229807       1.33363316       0.00000000
Si       1.35018689      -1.36689391      -1.34589605       0.00000000
Si       1.33973685       1.37801998       1.34917972       0.00000000
Si      -2.69337071      -0.03800457      -2.67685579       0.00000000
Si       2.69532876       0.02205666       2.68255135       0.00000000
Si      -0.02431934      -2.71280630       2.67275847       0.00000000
Si       2.70549372       0.00161271      -2.68429489       0.00000000
Si      -2.68467185       0.01889640       2.71251116       0.00000000
Si       0.02824539       2.69667920      -2.70082945       0.00000000
