10
Lattice="16.2900001489832 0.0 0.0 0.0 16.2900001489832 0.0 0.0 0.0 29.05898724650998" Properties=species:S:1:pos:R:3:initial_magmoms:R:1 pbc="T T T"
Si      -0.05527718      -1.46803852      -0.44123166       0.00000000
H       -1.76578226       1.65985328      -0.49914622       0.00000000
Si       2.51775473       0.44272962      -0.67326768       0.00000000
Si      -1.62565568      -0.86113828      -2.04569458       0.00000000
Si      -0.43826128      -2.22913991       1.73046269       0.00000000
Si       1.08245422       1.83839168      -1.89912105       0.00000000
Si       2.25283046       0.98886817       1.58455752       0.00000000
Si      -2.85076143       0.59396599      -0.67431380       0.00000000
Si       2.12329238      -1.78300568      -1.24645620       0.00000000
Si       0.25228975       1.21635802       2.80175131       0.00000000
