10
Lattice="16.2900001489832 0.0 0.0 0.0 16.2900001489832 0.0 0.0 0.0 29.05898724650998" Properties=species:S:1:pos:R:3:initial_magmoms:R:1 pbc="T T T"
Si       0.40511601       2.32805279       0.00595709       0.00000000
Si       1.74817766      -0.36400005       1.56314104       0.00000000
Si       0.83098549      -0.98290603      -2.02096539       0.00000000
Si      -1.98411550      -1.04920633       0.89812612       0.00000000
Si       2.32184630      -2.44198505      -0.98815086       0.00000000
Si       0.33277212       2.90918226       2.25151939       0.00000000
Si       3.61587504      -1.10462491       0.36666630       0.00000000
Si       2.11100483       1.53771574       2.83877246       0.00000000
H       -2.33631182       1.41259062      -2.78030578       0.00000000
Si      -0.89674822       3.56332350      -1.44911358       0.00000000
