10
Lattice="16.2900001489832 0.0 0.0 0.0 16.2900001489832 0.0 0.0 0.0 29.05898724650998" Properties=species:S:1:pos:R:3:initial_magmoms:R:1 pbc="T T T"
Si       1.30979746      -1.37354023       1.32909996       0.00000000
Si       1.46360764       1.26122068      -1.33651000       0.00000000
Si      -1.27791793      -1.43299873      -1.37082866       0.00000000
Si      -1.31663926       1.38025171       1.38965889       0.00000000
H        2.04766931      -2.26808930       0.40397804       0.00000000
Si      -2.63433086       2.69151527      -0.02109682       0.00000000
Si       0.11091861       2.63029745      -2.69629625       0.00000000
Si      -2.62588124      -0.08524557      -2.73584553       0.00000000
Si       2.86593231      -0.13510926       2.50776154       0.00000000
Si      -0.00853596      -2.78718645       2.61385590       0.00000000
