10
Lattice="16.2900001489832 0.0 0.0 0.0 16.2900001489832 0.0 0.0 0.0 29.05898724650998" Properties=species:S:1:pos:R:3:initial_magmoms:R:1 pbc="T T T"
Si      -1.14332995       1.75499176       0.95258266       0.00000000
Si      -1.41755581      -1.30496976      -1.34470463       0.00000000
Si       1.27338931       1.40985553      -1.38701452       0.00000000
Si       1.29303505      -1.22063252       1.56959214       0.00000000
H        0.07416837       2.65745777       1.08982826       0.00000000
Si       2.66786219      -2.46854916       0.10783790       0.00000000
Si      -0.22276575      -2.64472551       2.67206105       0.00000000
Si      -0.04471605      -2.62846809      -2.70635066       0.00000000
Si       2.63818181       0.12170585      -2.77068726       0.00000000
Si       2.56531664       2.84855576      -0.07070052       0.00000000
