10
Lattice="16.2900001489832 0.0 0.0 0.0 16.2900001489832 0.0 0.0 0.0 29.05898724650998" Properties=species:S:1:pos:R:3:initial_magmoms:R:1 pbc="T T T"
Si      -1.36339075      -1.33837012       1.34737806       0.00000000
Si      -1.36269028       1.33814206      -1.35676411       0.00000000
Si       1.33030413      -1.36730116      -1.36928854       0.00000000
Si       1.33356702       1.36200691       1.37504222       0.00000000
Si       0.00467686       2.68302818      -2.70248581       0.00000000
Si      -2.69180768       0.04364091       2.69565695       0.00000000
Si      -0.02407265      -2.69120576       2.70196275       0.00000000
Si       2.72025165      -0.01404198      -2.67575155       0.00000000
Si      -2.70990587      -0.03736926      -2.69917309       0.00000000
Si       2.68589604      -2.72326448      -0.03591691       0.00000000
