10
Lattice="16.28999089631971 0.0 0.0 0.0 16.28999089631971 0.0 0.0 0.0 34.529650657227435" Properties=species:S:1:pos:R:3:initial_magmoms:R:1 pbc="T T T"
Si      -0.63371358      -0.92051532       2.12820168       0.00000000
Si       2.06094564      -0.95444739      -0.78931373       0.00000000
Si      -1.81970377      -0.77872716      -1.39309953       0.00000000
Si      -0.23130171       2.42886899       0.08211156       0.00000000
Si       1.58832387      -3.31372809      -0.50043851       0.00000000
Si       0.62284815       3.00519779      -2.09577832       0.00000000
Si      -2.72591063      -1.90202040       1.74982555       0.00000000
Si      -3.76208495      -0.75627954      -0.04602805       0.00000000
Si      -2.44189448       0.64392741      -3.13560480       0.00000000
Si      -2.59808300       3.02959532       0.54864193       0.00000000
