10
Lattice="16.28999089631971 0.0 0.0 0.0 16.28999089631971 0.0 0.0 0.0 34.529650657227435" Properties=species:S:1:pos:R:3:initial_magmoms:R:1 pbc="T T T"
Si      -2.09219705      -0.98150508      -0.37837612       0.00000000
Si       0.63371358       0.92051532      -2.12820168       0.00000000
Si       1.27032678      -1.67839128       1.24279188       0.00000000
Si      -0.40942634       1.55952315       1.95841929       0.00000000
Si       1.05094935      -0.07700283       3.16516220       0.00000000
Si      -1.18599019       0.14178816      -3.52130121       0.00000000
Si      -1.59053947      -2.87925750      -1.81750371       0.00000000
Si      -3.12837137       0.16423578      -2.17422973       0.00000000
Si      -0.24447543      -3.39910398       1.88832406       0.00000000
Si       0.40241187       3.34938431      -2.04609012       0.00000000
