10
Lattice="16.28999089631971 0.0 0.0 0.0 16.28999089631971 0.0 0.0 0.0 34.529650657227435" Properties=species:S:1:pos:R:3:initial_magmoms:R:1 pbc="T T T"
Si       1.38939039      -1.23534400      -1.41466677       0.00000000
Si       1.35262386       1.34472321       1.36537566       0.00000000
Si      -1.36150191      -1.36888454       1.36264782       0.00000000
Si      -1.39308822       1.27874871      -1.47861226       0.00000000
Si      -0.27015336      -2.23432663      -2.79515403       0.00000000
Si      -2.26041669      -0.59323293      -2.74840086       0.00000000
Si       2.71673217       2.68828983      -0.02466454       0.00000000
Si      -2.72707632       2.67903711      -0.01193000       0.00000000
Si       2.42955576       0.20434176      -2.95568247       0.00000000
Si      -0.00174303       2.70229923       2.72356570       0.00000000
