10
Lattice="16.28999089631971 0.0 0.0 0.0 16.28999089631971 0.0 0.0 0.0 34.529650657227435" Properties=species:S:1:pos:R:3:initial_magmoms:R:1 pbc="T T T"
Si      -1.35599589      -1.35780408       1.35722321       0.00000000
Si      -1.35795069       1.35617508      -1.35856986       0.00000000
Si       1.35855342       1.35703845       1.35725774       0.00000000
Si       1.35886293      -1.35887922      -1.36354214       0.00000000
Si      -2.71231758       2.71375110      -0.00037983       0.00000000
Si      -2.71288773      -0.00016290       2.71341052       0.00000000
Si       0.00081450       2.71358820       2.71334146       0.00000000
Si       2.71518462       2.71272483      -0.00051795       0.00000000
Si       0.00091224      -2.71546640       2.71399753       0.00000000
Si      -2.71396287      -2.71561635      -0.00096683       0.00000000
