10
Lattice="16.28999089631971 0.0 0.0 0.0 16.28999089631971 0.0 0.0 0.0 34.529650657227435" Properties=species:S:1:pos:R:3:initial_magmoms:R:1 pbc="T T T"
Si      -1.68836076      -1.24748494      -1.07031618       0.00000000
Si      -0.55905651       2.28866355       0.40482585       0.00000000
Si       1.73056815      -0.30436236      -1.68656720       0.00000000
Si       0.19275957      -0.75067578       2.41207009       0.00000000
Si      -0.44491248      -3.11507873      -1.83677126       0.00000000
Si       1.48339998       3.06610380       1.39406637       0.00000000
Si      -1.91148489       0.26446815       3.17586639       0.00000000
Si      -2.30049009       0.14739192      -2.94969706       0.00000000
Si       2.48842782       0.06905331       2.82894680       0.00000000
Si      -0.00430056      -3.12367985       2.18662588       0.00000000
