10
Lattice="16.28999089631971 0.0 0.0 0.0 16.28999089631971 0.0 0.0 0.0 34.529650657227435" Properties=species:S:1:pos:R:3:initial_magmoms:R:1 pbc="T T T"
Si      -0.23788287      -2.13648630      -0.91662462       0.00000000
Si      -1.36278882       0.30372379       1.95185865       0.00000000
Si       2.18820312       1.04490087       0.20192951       0.00000000
Si      -1.05049323       1.94856419      -1.19621136       0.00000000
Si       1.33692030       2.74239218       1.79133022       0.00000000
Si       0.29675493       1.30270641       3.33234592       0.00000000
Si       1.92283902       2.77050872      -1.47990712       0.00000000
Si       0.35147304       2.07088580      -3.09841634       0.00000000
Si       1.75821228      -3.26596974      -0.53044479       0.00000000
Si      -0.11088603      -2.02926552      -3.24527103       0.00000000
