10
Lattice="16.28999089631971 0.0 0.0 0.0 16.28999089631971 0.0 0.0 0.0 34.529650657227435" Properties=species:S:1:pos:R:3:initial_magmoms:R:1 pbc="T T T"
Si      -1.36855548       1.21806846      -1.46500412       0.00000000
Si       1.34195391       1.36506942       1.36693295       0.00000000
Si      -1.37586969      -1.35055503       1.35785165       0.00000000
Si       1.25491644      -1.44601443      -1.45105068       0.00000000
Si      -2.18476593      -0.70794711      -2.65268423       0.00000000
Si      -0.41070348      -2.31743169      -2.94283398       0.00000000
Si       2.68833870       2.68982109      -0.01100806       0.00000000
Si       2.69482212       0.00589698       2.72222250       0.00000000
Si       2.70212004      -2.72417670      -0.02666381       0.00000000
Si      -0.01635516      -2.71016730       2.72156643       0.00000000
