10
Lattice="16.28999089631971 0.0 0.0 0.0 16.28999089631971 0.0 0.0 0.0 34.529650657227435" Properties=species:S:1:pos:R:3:initial_magmoms:R:1 pbc="T T T"
Si       2.09639268       0.51681654      -0.93281903       0.00000000
Si      -1.05816582      -1.85785821      -0.99355672       0.00000000
Si      -1.29246489       1.82996973      -0.89045113       0.00000000
Si       0.64523061      -0.39469041       2.30716896       0.00000000
Si       1.16323632      -2.65854429       1.67147773       0.00000000
Si       2.41114806       2.33093610       0.71024078       0.00000000
Si      -0.92072709      -3.33141903       0.84110823       0.00000000
Si      -3.52507455       0.93274911      -0.65820457       0.00000000
Si       1.60388082       1.28902770      -3.14948573       0.00000000
Si       2.65155588       0.91627992       2.55633506       0.00000000
