10
Lattice="16.28999089631971 0.0 0.0 0.0 16.28999089631971 0.0 0.0 0.0 34.529650657227435" Properties=species:S:1:pos:R:3:initial_magmoms:R:1 pbc="T T T"
Si       0.32840640      -2.19076065      -0.72270599       0.00000000
Si      -0.67662144       0.80628984      -2.15758643       0.00000000
Si      -1.25090910      -0.96861969       1.81373997       0.00000000
Si       1.83772377       0.93449214       1.26430387       0.00000000
Si       2.25103365      -1.22173371       2.34093897       0.00000000
Si       1.60909362      -3.08708532       1.02988194       0.00000000
Si      -1.19353572       3.07235916      -1.83228241       0.00000000
Si      -1.96726185      -3.01048974      -1.13958270       0.00000000
Si       0.25629057      -1.07595450       3.62281844       0.00000000
Si      -3.23473788       0.17172918       2.13275959       0.00000000
