10
Lattice="16.28999089631971 0.0 0.0 0.0 16.28999089631971 0.0 0.0 0.0 34.529650657227435" Properties=species:S:1:pos:R:3:initial_magmoms:R:1 pbc="T T T"
Si      -1.98382878       1.14034887       0.31901962       0.00000000
Si       1.50719967      -0.10733481       1.80907847       0.00000000
Si      -0.62907093      -2.30104395      -0.26401386       0.00000000
Si       1.25090910       0.96861969      -1.81373997       0.00000000
Si       1.57931550      -1.22214096      -2.53644597       0.00000000
Si      -3.35819979      -0.68141070       0.14340172       0.00000000
Si       3.50194275      -0.25311402       0.52719900       0.00000000
Si       2.86000272      -2.11846563      -0.78385804       0.00000000
Si      -0.71635275      -2.04187005      -2.95332267       0.00000000
Si       3.08863287       1.90311183      -0.54943611       0.00000000
