10
Lattice="16.28999089631971 0.0 0.0 0.0 16.28999089631971 0.0 0.0 0.0 34.529650657227435" Properties=species:S:1:pos:R:3:initial_magmoms:R:1 pbc="T T T"
Si      -2.22594705       0.16470819      -0.73496402       0.00000000
Si       1.47522240       0.00100998      -1.84429873       0.00000000
Si       0.24281874       1.64437776       1.73359661       0.00000000
Si       0.60839892      -1.90131993       1.41954926       0.00000000
Si      -0.95058666      -0.19908009       3.50372561       0.00000000
Si       3.56257413       0.16434981      -0.73928023       0.00000000
Si       1.08957294      -2.01134259      -2.97749344       0.00000000
Si      -2.21732964       0.96746310      -2.96906820       0.00000000
Si      -3.27466467       2.09681622       0.07385896       0.00000000
Si      -3.53867670      -1.66842180       0.02289317       0.00000000
