10
Lattice="16.28999089631971 0.0 0.0 0.0 16.28999089631971 0.0 0.0 0.0 34.529650657227435" Properties=species:S:1:pos:R:3:initial_magmoms:R:1 pbc="T T T"
Si      -1.35638685      -1.35560493      -1.35815551       0.00000000
Si      -1.35190710       1.35995436       1.36019276       0.00000000
Si       1.36247931      -1.35193968       1.35915687       0.00000000
Si       1.35927018       1.35922131      -1.35777568       0.00000000
Si       0.00117288      -2.71301805      -2.71513701       0.00000000
Si      -2.71433754      -2.71466334      -0.00041436       0.00000000
Si      -2.71393029       0.00223173      -2.71562042       0.00000000
Si       2.71596654      -2.71437012      -0.00107042       0.00000000
Si       2.71559187       0.00221544      -2.71534419       0.00000000
Si      -2.71511946       2.71619460      -0.00089777       0.00000000
