10
Lattice="16.28999089631971 0.0 0.0 0.0 16.28999089631971 0.0 0.0 0.0 34.529650657227435" Properties=species:S:1:pos:R:3:initial_magmoms:R:1 pbc="T T T"
Si      -1.62539828      -1.63048239      -0.40182177       0.00000000
Si      -0.35005581       2.03245443      -1.10512209       0.00000000
Si      -0.53760258       0.34531542       2.33292809       0.00000000
Si       2.10424446      -1.01514393      -0.76379630       0.00000000
Si       2.19152628      -1.27431783       1.92551252       0.00000000
Si       0.83676843       2.16707499       2.50854599       0.00000000
Si      -0.94429872      -2.97047433       1.45387175       0.00000000
Si       0.20157246       3.43878642       0.67954390       0.00000000
Si       0.15654690      -1.70499774       3.10611646       0.00000000
Si      -3.58177094      -0.43818471       0.43058498       0.00000000
