10
Lattice="16.28999089631971 0.0 0.0 0.0 16.28999089631971 0.0 0.0 0.0 34.529650657227435" Properties=species:S:1:pos:R:3:initial_magmoms:R:1 pbc="T T T"
Si      -0.32140170       1.74573414      -1.54444308       0.00000000
Si       2.03462100       0.40527891       1.15926461       0.00000000
Si      -1.79828568       0.26104725       1.57652114       0.00000000
Si       0.34034697      -1.87489755      -1.50235141       0.00000000
Si       3.23141472       1.07562870      -0.71987456       0.00000000
Si       1.82389356       1.75969467      -2.54576898       0.00000000
Si       1.49812614       2.33126190       2.52536194       0.00000000
Si      -1.64095686      -3.09382938      -1.34869438       0.00000000
Si      -0.38657799       3.48803109       1.69740952       0.00000000
Si      -0.45963864       3.88163007      -0.57567866       0.00000000
