10
Lattice="16.28999089631971 0.0 0.0 0.0 16.28999089631971 0.0 0.0 0.0 34.529650657227435" Properties=species:S:1:pos:R:3:initial_magmoms:R:1 pbc="T T T"
Si       0.21817197       2.25525276       0.70091777       0.00000000
Si       2.21035752      -0.75370572       0.42571630       0.00000000
Si      -1.75145193      -1.23061176       1.11496304       0.00000000
Si      -1.00624959       0.06770124      -2.23023685       0.00000000
Si      -1.93557780      -2.96173377      -0.38352104       0.00000000
Si      -0.05170446       3.29377284      -1.42334753       0.00000000
Si      -2.02706244       2.19152628      -2.03359038       0.00000000
Si      -3.61631484       0.17881533       0.60547776       0.00000000
Si       1.94110011      -2.19706488       2.23973251       0.00000000
Si      -2.57077377      -1.69002234      -2.21252313       0.00000000
