10
Lattice="16.28999089631971 0.0 0.0 0.0 16.28999089631971 0.0 0.0 0.0 34.529650657227435" Properties=species:S:1:pos:R:3:initial_magmoms:R:1 pbc="T T T"
Si       0.56700603       2.24862273      -0.18411220       0.00000000
Si      -1.96729443      -0.41169717      -1.24893816       0.00000000
Si       1.50933366      -1.58835645      -0.94210752       0.00000000
Si       0.01521486       0.12891906       2.43278790       0.00000000
Si       3.06499608      -1.44647055       0.82563894       0.00000000
Si       1.92987630      -1.42656417       2.85556918       0.00000000
Si       0.02489112      -3.42065565      -1.52413963       0.00000000
Si       1.05924096       2.69703756      -2.42436266       0.00000000
Si      -1.29233457       3.56353524       0.58645191       0.00000000
Si      -3.83579001       0.47030859      -0.14046670       0.00000000
