10
Lattice="16.28999089631971 0.0 0.0 0.0 16.28999089631971 0.0 0.0 0.0 34.529650657227435" Properties=species:S:1:pos:R:3:initial_magmoms:R:1 pbc="T T T"
Si       1.35690813       1.35878148      -1.35725774       0.00000000
Si      -1.35744570      -1.35850455      -1.35701603       0.00000000
Si       1.35785295      -1.35725022       1.35798286       0.00000000
Si      -1.35808101       1.35866745       1.35794833       0.00000000
Si       0.00201996      -2.71252935      -2.71158045       0.00000000
Si       2.71417464      -2.71425609       0.00041436       0.00000000
Si      -2.71534752      -2.71423980       0.00013812       0.00000000
Si       2.71560816      -0.00058644       2.71479171       0.00000000
Si       2.71531494       2.71562445       0.00048342       0.00000000
Si      -2.71554300       2.71557558       0.00017265       0.00000000
