10
Lattice="16.28999089631971 0.0 0.0 0.0 16.28999089631971 0.0 0.0 0.0 34.529650657227435" Properties=species:S:1:pos:R:3:initial_magmoms:R:1 pbc="T T T"
Si       1.35855342      -1.35798327      -1.36205736       0.00000000
Si      -1.35892809       1.35874890      -1.36157395       0.00000000
Si       1.35625653       1.35689184       1.37317591       0.00000000
Si      -1.35809730      -1.36982610       1.39303047       0.00000000
Si      -0.08392608       2.70011144       2.69103530       0.00000000
Si      -2.71037907      -2.71391400      -0.00089777       0.00000000
Si      -2.71598283       2.71622718      -0.00642252       0.00000000
Si       2.71751409      -2.71511946      -0.00479962       0.00000000
Si       0.00079821      -2.71464705      -2.71886621       0.00000000
Si       2.72036484       2.71318095      -0.00462698       0.00000000
