10
Lattice="16.28999089631971 0.0 0.0 0.0 16.28999089631971 0.0 0.0 0.0 34.529650657227435" Properties=species:S:1:pos:R:3:initial_magmoms:R:1 pbc="T T T"
Si      -0.13823694       2.13589593       0.96876442       0.00000000
Si       0.32140170      -1.74573414       1.54444308       0.00000000
Si       2.14529526       0.01396053      -1.00132590       0.00000000
Si      -1.77631047      -0.25733313      -1.57541619       0.00000000
Si       1.42646643      -1.26804618      -2.89904203       0.00000000
Si      -0.38722959       0.12699684      -3.44975574       0.00000000
Si      -2.75776668       1.86028542      -1.35698150       0.00000000
Si       0.66174867      -3.62063169       0.04209167       0.00000000
Si      -0.06517629       1.74229695       3.24185259       0.00000000
Si       3.55281642      -0.67010544       0.82456852       0.00000000
