10
Lattice="16.28999089631971 0.0 0.0 0.0 16.28999089631971 0.0 0.0 0.0 34.529650657227435" Properties=species:S:1:pos:R:3:initial_magmoms:R:1 pbc="T T T"
Si       2.15210448      -0.85867848       0.30576023       0.00000000
Si      -0.46742526      -1.13428899      -2.01998569       0.00000000
Si       0.19706013       2.37300407       0.22544422       0.00000000
Si      -1.36914192      -1.19799918       1.56270927       0.00000000
Si      -2.74980087      -1.36019871      -1.78235250       0.00000000
Si       0.28434195       2.11383017       2.91475303       0.00000000
Si       2.22516513      -1.25227746       2.57884840       0.00000000
Si      -2.85148305       0.41767366       2.44311227       0.00000000
Si       0.17029566      -2.26048185       3.04669090       0.00000000
Si       0.00430056       3.12367985      -2.18662588       0.00000000
