10
Lattice="16.28999089631971 0.0 0.0 0.0 16.28999089631971 0.0 0.0 0.0 34.529650657227435" Properties=species:S:1:pos:R:3:initial_magmoms:R:1 pbc="T T T"
Si      -1.36107837      -1.35350352       1.39443238       0.00000000
Si       1.35567009       1.36449927       1.39878312       0.00000000
Si      -1.38088701       1.30890150      -1.55720179       0.00000000
Si       1.34381097      -1.41653279      -1.52727493       0.00000000
Si       2.68939755       2.70720252       0.02589035       0.00000000
Si       2.68602552      -2.71419243       0.02890824       0.00000000
Si      -2.71378368       2.70511740       0.00936445       0.00000000
Si      -2.71448415      -2.71537671       0.00668149       0.00000000
Si       2.70878265       0.00423540       2.75711127       0.00000000
Si      -0.00265527      -2.71177173       2.75800905       0.00000000
