10
Lattice="16.28999089631971 0.0 0.0 0.0 16.28999089631971 0.0 0.0 0.0 34.529650657227435" Properties=species:S:1:pos:R:3:initial_magmoms:R:1 pbc="T T T"
Si      -1.39598784      -0.68235226       1.76598544       0.00000000
Si       2.35173843       0.11544723       0.39888675       0.00000000
Si      -1.07173539      -1.21301204      -1.79454148       0.00000000
Si      -0.67458519       2.33062659      -0.07955636       0.00000000
Si       0.04917951       0.11170053       3.59370993       0.00000000
Si      -3.53848841       0.29080908       0.89262650       0.00000000
Si      -3.43851668      -0.61228571      -1.32801111       0.00000000
Si      -2.85295078       2.60587872       0.95156864       0.00000000
Si      -0.21758553      -0.63668325      -3.97243135       0.00000000
Si       3.75370470       0.23776884      -1.50331824       0.00000000
