10
Lattice="16.28999089631971 0.0 0.0 0.0 16.28999089631971 0.0 0.0 0.0 34.529650657227435" Properties=species:S:1:pos:R:3:initial_magmoms:R:1 pbc="T T T"
Si       0.34109631      -0.82847682       2.13686863       0.00000000
Si      -2.08396341      -0.67287474      -0.83036950       0.00000000
Si      -0.51800571       2.26385388       0.63569122       0.00000000
Si       2.00525013      -0.38182131      -1.32604292       0.00000000
Si      -1.16323632       2.65854429      -1.67147773       0.00000000
Si      -2.22140214       0.80068608      -2.66503446       0.00000000
Si       2.66232357      -0.31534182       2.50143288       0.00000000
Si       3.46535541      -1.14660423       0.45630959       0.00000000
Si       1.55333295      -2.20663200      -2.84821436       0.00000000
Si      -3.81453156      -0.36851238       0.85619770       0.00000000
