10
Lattice="16.28999089631971 0.0 0.0 0.0 16.28999089631971 0.0 0.0 0.0 34.529650657227435" Properties=species:S:1:pos:R:3:initial_magmoms:R:1 pbc="T T T"
Si       0.80303184      -0.83126241      -2.04512329       0.00000000
Si       0.85729383      -1.66408866       1.42017080       0.00000000
Si       1.39564575       1.93438863       0.12914097       0.00000000
Si      -2.32122726      -0.51313500      -0.36456426       0.00000000
Si      -1.16406711      -2.47754284       2.17495485       0.00000000
Si       3.15343449      -0.32987250      -1.74965291       0.00000000
Si      -2.66232357       0.31534182      -2.50143288       0.00000000
Si      -2.41693101      -2.83298233       0.16812496       0.00000000
Si       0.52339770      -3.20398955      -1.85596976       0.00000000
Si       3.63967470       1.15404876       0.11512192       0.00000000
