10
Lattice="16.28999089631971 0.0 0.0 0.0 16.28999089631971 0.0 0.0 0.0 34.529650657227435" Properties=species:S:1:pos:R:3:initial_magmoms:R:1 pbc="T T T"
Si      -0.34109631       0.82847682      -2.13686863       0.00000000
Si      -1.66720005       0.52901775       1.54827587       0.00000000
Si      -0.09570375      -2.31984733       0.53268922       0.00000000
Si       2.32122726       0.51313500       0.36456426       0.00000000
Si      -0.38651283      -0.36730692       3.30086380       0.00000000
Si       1.15716015      -1.96440784       2.53951911       0.00000000
Si      -0.85910202       3.09233070      -1.50117740       0.00000000
Si       3.12425910      -0.31812741      -1.68055904       0.00000000
Si       0.61686972      -3.42642950      -1.39503320       0.00000000
Si       3.17852109      -1.15095366       1.78473505       0.00000000
