10
Lattice="16.28999089631971 0.0 0.0 0.0 16.28999089631971 0.0 0.0 0.0 34.529650657227435" Properties=species:S:1:pos:R:3:initial_magmoms:R:1 pbc="T T T"
Si       1.39598784       0.68235226      -1.76598544       0.00000000
Si      -0.48758576      -2.32052094       0.44398250       0.00000000
Si       1.44516735       0.79405279       1.82772449       0.00000000
Si      -2.14250057       0.97316134      -0.87335894       0.00000000
Si      -2.17802906      -1.07156923       2.01922608       0.00000000
Si      -0.36931873      -0.01526536       3.17317105       0.00000000
Si       0.72140265       3.01297885      -1.84554180       0.00000000
Si       0.32425245      -0.53065978      -3.56052692       0.00000000
Si      -1.45696294       3.28823098      -0.81441680       0.00000000
Si      -2.04252884       0.07006655      -3.09399655       0.00000000
