10
Lattice="16.28999089631971 0.0 0.0 0.0 16.28999089631971 0.0 0.0 0.0 34.529650657227435" Properties=species:S:1:pos:R:3:initial_magmoms:R:1 pbc="T T T"
Si      -1.34486982      -1.35321030       1.35349400       0.00000000
Si      -1.35684297       1.35610992      -1.36008917       0.00000000
Si       1.35684297      -1.35744570      -1.36071070       0.00000000
Si       1.35542574       1.35387819       1.39617267       0.00000000
Si      -2.71461447      -2.71347417      -0.00145025       0.00000000
Si      -2.71033020       2.71854036       0.00013812       0.00000000
Si       2.71477737       2.71717200       0.00441980       0.00000000
Si       0.00074934      -2.71480995      -2.71748503       0.00000000
Si       0.00078192       2.71542897      -2.71696708       0.00000000
Si      -2.71454931      -0.00097740      -2.71800297       0.00000000
