10
Lattice="16.28999089631971 0.0 0.0 0.0 16.28999089631971 0.0 0.0 0.0 34.529650657227435" Properties=species:S:1:pos:R:3:initial_magmoms:R:1 pbc="T T T"
Si       1.20697497       1.77898203      -1.13133011       0.00000000
Si      -1.52722008      -0.26663472      -1.87744721       0.00000000
Si       1.48727700      -2.05001505       0.02752015       0.00000000
Si      -1.13309982       1.20831075       2.01232011       0.00000000
Si      -2.32727085       1.93057677      -1.98438560       0.00000000
Si      -3.42886581      -1.29542967      -1.02746486       0.00000000
Si      -2.40834618       2.93418738       0.35499954       0.00000000
Si       2.23265853      -2.14130421       2.37750590       0.00000000
Si       1.83203856       3.49009992       0.33093236       0.00000000
Si       3.20548104       0.86323968      -2.15762096       0.00000000
