10
Lattice="16.28999089631971 0.0 0.0 0.0 16.28999089631971 0.0 0.0 0.0 34.529650657227435" Properties=species:S:1:pos:R:3:initial_magmoms:R:1 pbc="T T T"
Si      -1.85060916      -0.83841372      -1.24293000       0.00000000
Si       0.79320897       1.86162120      -1.33446815       0.00000000
Si      -0.23969106       0.40617486       2.37940503       0.00000000
Si       1.78743654      -1.71760131       0.12527364       0.00000000
Si      -0.99655704       2.61900846       1.79240064       0.00000000
Si      -0.49642146      -2.06223255      -2.74213921       0.00000000
Si       2.21579838       0.65474397      -2.75923140       0.00000000
Si       0.78437979      -3.42932193      -1.22645935       0.00000000
Si       3.52619856      -0.68321889      -1.30242462       0.00000000
Si       2.66712912       2.83235859      -0.04671864       0.00000000
