10
Lattice="16.28999089631971 0.0 0.0 0.0 16.28999089631971 0.0 0.0 0.0 34.529650657227435" Properties=species:S:1:pos:R:3:initial_magmoms:R:1 pbc="T T T"
Si      -2.12574726       0.99952182      -0.20020303       0.00000000
Si       0.56804859      -0.84385458       2.13393360       0.00000000
Si       0.22931433      -1.60824654      -1.73725675       0.00000000
Si       1.34047152       1.96577946      -0.53469194       0.00000000
Si      -1.82312793       1.14583860      -2.59866843       0.00000000
Si      -0.01109349      -0.19359036      -3.58335103       0.00000000
Si       0.75839724       1.30556205       3.32810771       0.00000000
Si       3.50795376       1.19786886      -0.31712049       0.00000000
Si       2.61822654      -2.02277817       1.74599276       0.00000000
Si       2.51586018      -2.31976116      -1.95783229       0.00000000
