10
Lattice="16.28999089631971 0.0 0.0 0.0 16.28999089631971 0.0 0.0 0.0 34.529650657227435" Properties=species:S:1:pos:R:3:initial_magmoms:R:1 pbc="T T T"
Si      -1.19679372      -0.67034979       1.87913917       0.00000000
Si       0.57515103      -1.98426861      -1.11696576       0.00000000
Si       1.84300173       1.25633367       0.84939535       0.00000000
Si      -1.40752116       0.68406597      -1.82589442       0.00000000
Si      -3.23141472      -1.07562870       0.71987456       0.00000000
Si       0.99738783      -1.15434198      -3.34019309       0.00000000
Si      -3.55281642       0.67010544      -0.82456852       0.00000000
Si      -0.00692325      -2.64448602       2.74583388       0.00000000
Si       2.12820705       3.22010946      -0.43759451       0.00000000
Si      -1.73328858       1.25563320       3.24523650       0.00000000
