10
Lattice="16.28999089631971 0.0 0.0 0.0 16.28999089631971 0.0 0.0 0.0 34.529650657227435" Properties=species:S:1:pos:R:3:initial_magmoms:R:1 pbc="T T T"
Si      -0.49648662       0.77654008      -2.14422344       0.00000000
Si      -0.50373567      -2.29684113      -0.14316001       0.00000000
Si       2.32808535       0.29831325       0.48652305       0.00000000
Si      -1.60743204       1.42477131       2.36807930       0.00000000
Si       1.79838342      -1.32219414       2.35478537       0.00000000
Si      -2.88264582       0.41598374      -1.86215057       0.00000000
Si      -1.87279614       3.15037916       0.68624266       0.00000000
Si       1.29717270      -3.39325587       0.90509171       0.00000000
Si       0.33940215       0.18578745       3.75299530       0.00000000
Si      -2.03742288      -2.88609930       1.63570500       0.00000000
