10
Lattice="16.28999089631971 0.0 0.0 0.0 16.28999089631971 0.0 0.0 0.0 34.529650657227435" Properties=species:S:1:pos:R:3:initial_magmoms:R:1 pbc="T T T"
Si      -1.80090837       1.09641474      -1.04825172       0.00000000
Si      -0.31493457      -1.99855494       1.28457278       0.00000000
Si       0.63188910      -1.35216774      -1.89947714       0.00000000
Si       0.50121072       2.07106173       1.44969366       0.00000000
Si       1.89364734      -2.68270236       0.78796707       0.00000000
Si      -3.33459558       0.50715657       0.73061329       0.00000000
Si       3.12855966      -0.76274667       1.62047741       0.00000000
Si       1.92181275       0.82085310       2.96271474       0.00000000
Si      -1.29717270       3.39325587      -0.90509171       0.00000000
Si      -0.84636324      -3.26614500      -1.74502593       0.00000000
