10
Lattice="16.28999089631971 0.0 0.0 0.0 16.28999089631971 0.0 0.0 0.0 34.529650657227435" Properties=species:S:1:pos:R:3:initial_magmoms:R:1 pbc="T T T"
Si      -1.10253978      -1.38075669       1.64556118       0.00000000
Si       1.45898127      -1.50798159      -1.39820993       0.00000000
Si       1.54665405       1.29877305       1.59886326       0.00000000
Si      -1.94683419       1.23898386      -1.38491600       0.00000000
Si      -0.33940215      -0.18578745      -3.75299530       0.00000000
Si       1.98868320       0.11252580      -3.26647225       0.00000000
Si      -2.01407931      -3.34752984       0.32854981       0.00000000
Si       2.87958330      -2.75819022       0.11481115       0.00000000
Si      -2.51164107      -0.00007088       3.13281968       0.00000000
Si       2.70394452       2.21000633      -2.01176763       0.00000000
