10
Lattice="16.28999089631971 0.0 0.0 0.0 16.28999089631971 0.0 0.0 0.0 34.529650657227435" Properties=species:S:1:pos:R:3:initial_magmoms:R:1 pbc="T T T"
Si       1.90267200       0.81994412      -1.26064514       0.00000000
Si       1.34221455      -1.29765964       1.55618317       0.00000000
Si      -1.34381097       1.41653279       1.52727493       0.00000000
Si      -1.54665405      -1.29877305      -1.59886326       0.00000000
Si      -2.64919383      -2.67952974       0.04669793       0.00000000
Si       2.56303602      -2.78230335       0.19163622       0.00000000
Si       2.66203035       2.72439173       0.11052602       0.00000000
Si      -2.72469798       2.72543429      -0.02992686       0.00000000
Si       1.15729047       0.91123328      -3.61063089       0.00000000
Si       3.63205098      -1.02549460      -0.99559535       0.00000000
