10
Lattice="16.28999089631971 0.0 0.0 0.0 16.28999089631971 0.0 0.0 0.0 34.529650657227435" Properties=species:S:1:pos:R:3:initial_magmoms:R:1 pbc="T T T"
Si       1.15722531      -1.51436727       1.31230011       0.00000000
Si       1.37000272       1.33970589      -1.36682246       0.00000000
Si      -1.34457660      -1.37187864      -1.36440538       0.00000000
Si      -1.39558059       1.25325486       1.48277309       0.00000000
Si      -0.83136015      -2.17649061       2.69327973       0.00000000
Si       0.21035277       2.38194009       2.89838597       0.00000000
Si      -2.70892926       2.69749368       0.03014440       0.00000000
Si      -2.64541455      -0.31741065       2.74428005       0.00000000
Si       0.00974142       2.70225036      -2.72501249       0.00000000
Si      -2.70751203      -0.01383021      -2.72673898       0.00000000
