10
Lattice="16.28999089631971 0.0 0.0 0.0 16.28999089631971 0.0 0.0 0.0 34.529650657227435" Properties=species:S:1:pos:R:3:initial_magmoms:R:1 pbc="T T T"
Si      -1.73374470      -1.51842089      -0.58475996       0.00000000
Si      -0.09997173       0.90309479       2.22063760       0.00000000
Si      -0.96741423       1.83849917      -1.24054745       0.00000000
Si       2.36678129      -0.60072633      -0.46653037       0.00000000
Si      -2.61026073       0.79509209       2.49818709       0.00000000
Si       2.04252884      -0.07006655       3.09399655       0.00000000
Si       3.43851668       0.61228571       1.32801111       0.00000000
Si      -3.32552205      -1.30238843       1.24348247       0.00000000
Si      -0.89205669       3.70834682       0.31304599       0.00000000
Si      -1.96931439      -1.58196818      -3.00062832       0.00000000
