10
Lattice="16.28999089631971 0.0 0.0 0.0 16.28999089631971 0.0 0.0 0.0 34.529650657227435" Properties=species:S:1:pos:R:3:initial_magmoms:R:1 pbc="T T T"
Si      -0.15006348       1.45863918       1.80773181       0.00000000
Si      -1.14215706      -2.05899084       0.16702001       0.00000000
Si      -1.45243269       0.95966019      -1.60107174       0.00000000
Si       2.11655970      -0.07934859      -1.15746907       0.00000000
Si       1.00610298      -0.97699275      -3.01823845       0.00000000
Si      -0.27710919      -2.68047063      -1.98334971       0.00000000
Si      -2.31754572       2.22654978       1.59016036       0.00000000
Si      -0.03784167       1.19465973      -3.42444549       0.00000000
Si      -1.89530892       3.05647641      -0.63306697       0.00000000
Si       0.35546409       0.14046867       3.66777607       0.00000000
