10
Lattice="16.28999089631971 0.0 0.0 0.0 16.28999089631971 0.0 0.0 0.0 34.529650657227435" Properties=species:S:1:pos:R:3:initial_magmoms:R:1 pbc="T T T"
Si       0.53009289      -2.25372150      -0.01384640       0.00000000
Si       1.54655372       1.49884290      -0.96627828       0.00000000
Si       0.12323385       0.88104465       2.18914655       0.00000000
Si      -2.36933163      -0.42295356      -0.13798056       0.00000000
Si      -0.68670495      -2.70946683       2.04298245       0.00000000
Si      -1.72351458       2.28169143       2.05517143       0.00000000
Si       0.37784655       2.02810500      -2.91844770       0.00000000
Si       2.50112492       2.44025829       1.03053800       0.00000000
Si      -0.61134741      -0.83961918       3.59657589       0.00000000
Si       2.80749095      -2.52205038      -0.13407871       0.00000000
