10
Lattice="16.28999089631971 0.0 0.0 0.0 16.28999089631971 0.0 0.0 0.0 34.529650657227435" Properties=species:S:1:pos:R:3:initial_magmoms:R:1 pbc="T T T"
Si      -1.84674843       1.40064678      -0.13397512       0.00000000
Si      -0.73458126      -1.72066383       1.40742935       0.00000000
Si      -0.12323385      -0.88104465      -2.18914655       0.00000000
Si       1.30566209       1.71453879       1.03699505       0.00000000
Si       2.37789107       1.55921364      -1.15860855       0.00000000
Si       1.42331987       0.61779825      -3.15542483       0.00000000
Si      -2.49256548      -1.30399821      -2.32712711       0.00000000
Si      -0.80993880      -3.59051148      -0.14616409       0.00000000
Si      -2.73308733      -0.80492148       2.43372020       0.00000000
Si       0.40685904      -3.13476615      -2.20299294       0.00000000
