10
Lattice="16.28999089631971 0.0 0.0 0.0 16.28999089631971 0.0 0.0 0.0 34.529650657227435" Properties=species:S:1:pos:R:3:initial_magmoms:R:1 pbc="T T T"
Si       0.33586722      -0.31552101       2.22604741       0.00000000
Si      -0.19728819       2.27812392      -0.35158110       0.00000000
Si      -0.62506359      -1.71111789      -1.46226246       0.00000000
Si       2.14861842      -2.04395517       1.99643646       0.00000000
Si       0.46061604       2.36345094      -2.66769324       0.00000000
Si      -2.10574314      -0.50024961      -2.96430311       0.00000000
Si      -2.40587010       2.96227134       0.14502461       0.00000000
Si       1.37344248      -2.62686024      -2.48855331       0.00000000
Si      -1.58151465      -1.07878896       3.38551471       0.00000000
Si      -1.83203856      -3.49009992      -0.33093236       0.00000000
