10
Lattice="16.28999089631971 0.0 0.0 0.0 16.28999089631971 0.0 0.0 0.0 34.529650657227435" Properties=species:S:1:pos:R:3:initial_magmoms:R:1 pbc="T T T"
Si      -1.35843939       1.35610992      -1.36475068       0.00000000
Si       1.35931905      -1.35853713      -1.36340402       0.00000000
Si       1.36331010       1.34830701       1.38691872       0.00000000
Si      -1.35935163      -1.36329381       1.39175288       0.00000000
Si      -2.71160082       2.71205694      -0.00714764       0.00000000
Si      -2.71477737      -2.71717200      -0.00441980       0.00000000
Si       2.71807225       2.71474479      -0.00763106       0.00000000
Si       0.00061902       2.71332756      -2.72180123       0.00000000
Si      -2.71399545      -0.00174303      -2.72138688       0.00000000
Si       2.71714054      -0.00174303      -2.72180123       0.00000000
