10
Lattice="16.28999089631971 0.0 0.0 0.0 16.28999089631971 0.0 0.0 0.0 34.529650657227435" Properties=species:S:1:pos:R:3:initial_magmoms:R:1 pbc="T T T"
Si       0.19728819      -2.27812392       0.35158110       0.00000000
Si      -2.20858191       0.68414742       0.49660571       0.00000000
Si       0.65790423       0.08532702      -2.31611214       0.00000000
Si       1.23491232       1.91995569       0.83251034       0.00000000
Si      -1.26175824       1.33053462      -2.68744421       0.00000000
Si      -1.89364734       2.68270236      -0.78796707       0.00000000
Si       0.53315541      -2.59364493       2.57762851       0.00000000
Si      -2.74001058      -0.58344264      -2.53299300       0.00000000
Si       2.63324592       0.94216473       2.58718770       0.00000000
Si       2.33495973       2.74504419      -1.24883457       0.00000000
