10
Lattice="16.28999089631971 0.0 0.0 0.0 16.28999089631971 0.0 0.0 0.0 34.529650657227435" Properties=species:S:1:pos:R:3:initial_magmoms:R:1 pbc="T T T"
Si      -1.20674691       1.58359977       1.34223733       0.00000000
Si      -1.23491232      -1.91995569      -0.83251034       0.00000000
Si       1.39833360      -0.97779096       1.75467736       0.00000000
Si       1.10004741       0.82508850      -2.08134492       0.00000000
Si       2.94776902      -1.59251040       0.18535527       0.00000000
Si      -3.12855966       0.76274667      -1.62047741       0.00000000
Si      -3.44349423      -1.23580827      -0.33590463       0.00000000
Si      -0.57700809      -1.83462867      -3.14862248       0.00000000
Si      -2.62734894       2.83380840      -0.17078375       0.00000000
Si       0.08252514      -2.56261248       2.95077580       0.00000000
