10
Lattice="16.28999089631971 0.0 0.0 0.0 16.28999089631971 0.0 0.0 0.0 34.529650657227435" Properties=species:S:1:pos:R:3:initial_magmoms:R:1 pbc="T T T"
Si       1.35499100      -1.35329891      -1.35819004       0.00000000
Si       1.35678616       1.35797027       1.35684338       0.00000000
Si      -1.35821668      -1.35699674       1.35708509       0.00000000
Si      -1.35600124       1.35645041      -1.36409461       0.00000000
Si       2.71192845      -2.71550129      -0.00041436       0.00000000
Si       2.71381809       0.00054589       2.71455000       0.00000000
Si      -0.00079530      -2.71440986       2.71437736       0.00000000
Si       2.71301988       2.71658559       0.00082871       0.00000000
Si      -2.71593931       0.00050260       2.71423924       0.00000000
Si      -2.71734025      -2.71296005      -0.00027624       0.00000000
