10
Lattice="16.28999089631971 0.0 0.0 0.0 16.28999089631971 0.0 0.0 0.0 34.529650657227435" Properties=species:S:1:pos:R:3:initial_magmoms:R:1 pbc="T T T"
Si      -1.22082147       1.48464371       1.36454695       0.00000000
Si       1.06901496       1.75680875      -1.18723157       0.00000000
Si       1.52039457      -1.22355819       1.36902200       0.00000000
Si      -1.23010677      -1.27465992      -1.67568832       0.00000000
Si      -2.58509268      -2.55526569      -0.07729467       0.00000000
Si      -2.55480957       0.13403412       2.73956675       0.00000000
Si       0.16604397      -2.58611895       2.73290252       0.00000000
Si      -2.56303602       2.78230335      -0.19163622       0.00000000
Si       2.91884613      -2.49344514      -0.04638371       0.00000000
Si       2.75945825       0.50785704      -2.76247515       0.00000000
