10
Lattice="16.28999089631971 0.0 0.0 0.0 16.28999089631971 0.0 0.0 0.0 34.529650657227435" Properties=species:S:1:pos:R:3:initial_magmoms:R:1 pbc="T T T"
Si      -0.83546523      -1.67602923      -1.43667598       0.00000000
Si       1.76300154       0.88497054      -1.44724206       0.00000000
Si       0.26700939      -1.12943457       2.21338637       0.00000000
Si      -1.69453467       1.83954825      -0.18097000       0.00000000
Si      -2.14586541      -0.33806637      -2.89348275       0.00000000
Si      -2.57422725      -2.71041165      -0.00897771       0.00000000
Si       0.57529764       2.39270778      -2.87511297       0.00000000
Si      -1.00898631      -3.23824023       1.74609635       0.00000000
Si      -3.56845482       0.86881086      -1.46871951       0.00000000
Si       2.46314641       2.00730267       2.36010294       0.00000000
