10
Lattice="16.28999089631971 0.0 0.0 0.0 16.28999089631971 0.0 0.0 0.0 34.529650657227435" Properties=species:S:1:pos:R:3:initial_magmoms:R:1 pbc="T T T"
Si      -2.19162402       0.44813790       0.59570587       0.00000000
Si       0.63645030       1.70209064      -1.54292377       0.00000000
Si       1.07755092      -0.94687254       1.90900733       0.00000000
Si       0.12979872      -2.05998453      -1.21596233       0.00000000
Si      -2.47682934      -1.51563789       1.88269572       0.00000000
Si       2.83667937       1.84626529      -0.82750354       0.00000000
Si      -0.43652313      -2.75046876       2.09522584       0.00000000
Si       3.37720112      -0.46749042      -0.91061646       0.00000000
Si      -3.15843552       0.86556915      -1.52562441       0.00000000
Si       2.10013028      -1.70606799      -2.46655791       0.00000000
