10
Lattice="16.28999089631971 0.0 0.0 0.0 16.28999089631971 0.0 0.0 0.0 34.529650657227435" Properties=species:S:1:pos:R:3:initial_magmoms:R:1 pbc="T T T"
Si      -0.95215050      -1.38052863       1.67089073       0.00000000
Si      -0.80845641       1.64364471      -1.52496834       0.00000000
Si       1.20990717      -1.42482114      -1.47949277       0.00000000
Si       1.60839315       1.17972180       1.31364676       0.00000000
Si       0.96751197      -2.62573623       2.04222280       0.00000000
Si       3.41350338      -1.13049342      -0.56397310       0.00000000
Si       0.80308071       3.38362848      -1.09231158       0.00000000
Si       3.55077432       1.15727418      -0.03342472       0.00000000
Si      -0.24829218      -3.36776202      -1.70959849       0.00000000
Si       1.18043856      -0.38512818      -3.60797068       0.00000000
