10
Lattice="16.28999089631971 0.0 0.0 0.0 16.28999089631971 0.0 0.0 0.0 34.529650657227435" Properties=species:S:1:pos:R:3:initial_magmoms:R:1 pbc="T T T"
Si       0.59233959       0.56619153      -2.24574067       0.00000000
Si       2.24971840      -0.70524297       0.53331075       0.00000000
Si      -1.66220197      -1.79494623       0.22292355       0.00000000
Si      -0.36747277       2.15777340       1.18699193       0.00000000
Si       0.80123440       1.62851130       3.13916135       0.00000000
Si       2.80134667       0.70108902       2.31797674       0.00000000
Si      -0.93061807       2.20929867      -3.05383854       0.00000000
Si      -0.98199673      -3.17588211       2.06901782       0.00000000
Si       0.41858719       3.89994003      -0.28286706       0.00000000
Si       2.94743539       1.06336233      -2.41320957       0.00000000
