10
Lattice="16.28999089631971 0.0 0.0 0.0 16.28999089631971 0.0 0.0 0.0 34.529650657227435" Properties=species:S:1:pos:R:3:initial_magmoms:R:1 pbc="T T T"
Si      -1.16870717       0.52926210      -1.95216942       0.00000000
Si       2.00011226      -0.92742228      -0.82118461       0.00000000
Si      -1.54655372      -1.49884290       0.96627828       0.00000000
Si       0.95457119       0.94141539       1.99681628       0.00000000
Si      -1.42331987      -0.61779825       3.15542483       0.00000000
Si       2.63530823      -2.19913371       1.00781748       0.00000000
Si      -0.80123440      -1.62851130      -3.13916135       0.00000000
Si       3.56463644       0.83030130      -0.83889833       0.00000000
Si       1.45659641       3.15038826       1.45438970       0.00000000
Si       1.44848399      -2.33375427      -2.60585060       0.00000000
