10
Lattice="16.28999089631971 0.0 0.0 0.0 16.28999089631971 0.0 0.0 0.0 34.529650657227435" Properties=species:S:1:pos:R:3:initial_magmoms:R:1 pbc="T T T"
Si      -1.35681952      -1.35584928       1.35611826       0.00000000
Si      -1.35295879       1.35661491      -1.36133224       0.00000000
Si       1.35693551      -1.35423657      -1.36008917       0.00000000
Si       1.35775164       1.35910728       1.35618732       0.00000000
Si       0.00149066      -2.71305063       2.71334146       0.00000000
Si       2.71444962       0.00096111       2.71303070       0.00000000
Si       2.71485687      -2.71322982      -0.00103589       0.00000000
Si      -2.71503085       0.00201996       2.71334146       0.00000000
Si       2.71321158       2.71524978      -0.00120854       0.00000000
Si       0.00048783       2.71634121       2.71358317       0.00000000
