10
Lattice="16.28999089631971 0.0 0.0 0.0 16.28999089631971 0.0 0.0 0.0 34.529650657227435" Properties=species:S:1:pos:R:3:initial_magmoms:R:1 pbc="T T T"
Si      -1.34110820      -1.11843882      -1.62196219       0.00000000
Si       0.97427721      -2.27250387       0.27471805       0.00000000
Si       1.22840121       1.57512897      -1.75597184       0.00000000
Si      -1.13281637       0.70237593       2.37964673       0.00000000
Si      -2.49449000      -2.71270854      -0.24001574       0.00000000
Si       0.02854008      -2.38373199      -3.13346396       0.00000000
Si       2.44883172      -2.39542821       2.08752573       0.00000000
Si       2.06596785       3.40939926      -0.51362884       0.00000000
Si       1.87715046      -3.08920302      -1.79371277       0.00000000
Si      -0.67419097      -3.94198452       0.68703684       0.00000000
