10
Lattice="16.28999089631971 0.0 0.0 0.0 16.28999089631971 0.0 0.0 0.0 34.529650657227435" Properties=species:S:1:pos:R:3:initial_magmoms:R:1 pbc="T T T"
Si      -1.23526907       1.45091772      -1.38332764       0.00000000
Si       0.83756664       1.83427029       1.24234300       0.00000000
Si       1.50503310      -1.24794432      -1.38557207       0.00000000
Si      -1.22840121      -1.57512897       1.75597184       0.00000000
Si      -2.56950941      -2.69356779       0.13400965       0.00000000
Si      -2.56474935       0.10575468      -2.75166940       0.00000000
Si       0.13908402      -2.60534115      -2.75467348       0.00000000
Si      -2.73008087       2.67832035       0.05265775       0.00000000
Si       2.58812262      -2.93180904      -0.14647486       0.00000000
Si       0.15076395       2.81997819      -2.74597200       0.00000000
