10
Lattice="16.28999089631971 0.0 0.0 0.0 16.28999089631971 0.0 0.0 0.0 34.529650657227435" Properties=species:S:1:pos:R:3:initial_magmoms:R:1 pbc="T T T"
Si      -1.86485544       1.53666828      -0.42233239       0.00000000
Si       1.43192195       1.40965515       1.47282854       0.00000000
Si      -0.98644977      -1.84614570       1.37735400       0.00000000
Si       1.13281637      -0.70237593      -2.37964673       0.00000000
Si      -3.14085114      -0.57213738      -0.88962242       0.00000000
Si      -2.09690649      -2.74378986      -0.48341538       0.00000000
Si       3.14481545       2.27094003      -0.46729002       0.00000000
Si       0.42425513       3.50992485       1.74209091       0.00000000
Si       0.53650789      -3.48925284       2.18545187       0.00000000
Si       0.36275549      -0.15550434       4.14832549       0.00000000
