10
Lattice="16.28999089631971 0.0 0.0 0.0 16.28999089631971 0.0 0.0 0.0 34.529650657227435" Properties=species:S:1:pos:R:3:initial_magmoms:R:1 pbc="T T T"
Si      -1.51480221      -1.72071270       0.64553218       0.00000000
Si      -1.27032678       1.67839128      -1.24279188       0.00000000
Si      -0.21937743       1.60138845       1.92237032       0.00000000
Si       0.78850116      -1.75394430      -1.68017921       0.00000000
Si       2.26691640      -1.21816620       1.88390426       0.00000000
Si       2.84677524      -2.10615039      -0.32858434       0.00000000
Si      -1.67975312       3.23791443       0.71562741       0.00000000
Si      -1.52036525       0.23661225       3.43171886       0.00000000
Si      -3.36252383       0.69688620      -1.62116800       0.00000000
Si      -3.06423764      -1.10599326       2.21485427       0.00000000
