10
Lattice="16.28999089631971 0.0 0.0 0.0 16.28999089631971 0.0 0.0 0.0 34.529650657227435" Properties=species:S:1:pos:R:3:initial_magmoms:R:1 pbc="T T T"
Si      -1.35499100       1.35329891       1.35819004       0.00000000
Si       1.35693745      -1.36220238       1.35777568       0.00000000
Si       1.36068415       1.34131958      -1.37584161       0.00000000
Si      -1.35488232      -1.35827649      -1.36622855       0.00000000
Si       0.04356923      -2.62816344      -2.78163425       0.00000000
Si      -2.71099224       2.70974932      -0.00590457       0.00000000
Si       0.00179516       2.71126917       2.71503342       0.00000000
Si       2.71584925       2.71206087      -0.00293502       0.00000000
Si      -2.71320768      -0.00369783       2.71527513       0.00000000
Si      -2.70923292      -2.72083725      -0.00234802       0.00000000
