10
Lattice="16.28999089631971 0.0 0.0 0.0 16.28999089631971 0.0 0.0 0.0 34.40246978574605" Properties=species:S:1:pos:R:3:initial_magmoms:R:1 pbc="T T T"
Si      -0.17358624       1.01215634      -2.10718685       0.00000000
Si       0.39653118      -2.31738675      -0.25186062       0.00000000
Si       1.74200373       1.59262769       0.24670025       0.00000000
Si      -1.82037492      -0.32215756       1.48887092       0.00000000
Si       1.49473782      -2.59936665       1.84201247       0.00000000
Si       1.24512615      -0.33185988      -3.40629364       0.00000000
Si       1.45526715      -2.46055956      -2.35079088       0.00000000
Si       0.62040465       3.46617317       1.32752325       0.00000000
Si      -1.76852385      -3.34067568      -0.10234740       0.00000000
Si      -2.97391869       1.68983012       1.78861981       0.00000000
