10
Lattice="16.28999089631971 0.0 0.0 0.0 16.28999089631971 0.0 0.0 0.0 34.40246978574605" Properties=species:S:1:pos:R:3:initial_magmoms:R:1 pbc="T T T"
Si       1.15354377      -2.01198767      -0.29974889       0.00000000
Si      -1.05153579      -0.11929167      -2.10660201       0.00000000
Si       1.20270699       2.02812129      -0.15119894       0.00000000
Si      -1.70582364       0.54169137       1.67454115       0.00000000
Si      -2.47005270       2.52499887       0.65344088       0.00000000
Si       1.36133901      -2.70118241       1.95848592       0.00000000
Si       1.33913574       2.61055395       2.11377738       0.00000000
Si      -0.57642165       3.49153344      -0.79566077       0.00000000
Si      -0.54845172       1.79965404       3.26493179       0.00000000
Si       2.97391869      -1.68983012      -1.78861981       0.00000000
