10
Lattice="16.28999089631971 0.0 0.0 0.0 16.28999089631971 0.0 0.0 0.0 34.40246978574605" Properties=species:S:1:pos:R:3:initial_magmoms:R:1 pbc="T T T"
Si      -1.82060298       1.25998263       0.71409246       0.00000000
Si       2.03365989       1.14341139       0.38675278       0.00000000
Si       0.14468778      -1.86712722       1.68018316       0.00000000
Si      -0.03877020      -0.21989871      -2.68315333       0.00000000
Si       3.15343449      -0.76194846      -0.88290548       0.00000000
Si       2.34927864      -2.38047399       0.78090210       0.00000000
Si      -3.74285556      -0.22499748      -0.34887564       0.00000000
Si      -1.67293413       1.45891611       3.11573022       0.00000000
Si       1.92686265       3.32345322      -0.84922544       0.00000000
Si      -2.93493672      -2.57228874      -0.60833921       0.00000000
