10
Lattice="16.28999089631971 0.0 0.0 0.0 16.28999089631971 0.0 0.0 0.0 34.40246978574605" Properties=species:S:1:pos:R:3:initial_magmoms:R:1 pbc="T T T"
Si       1.82060298      -1.25998263      -0.71409246       0.00000000
Si      -0.40713597       2.08932282      -0.98201905       0.00000000
Si       0.14766885       0.19893348       2.40163776       0.00000000
Si      -1.92225258      -1.48498011      -1.06296811       0.00000000
Si      -3.06218931      -1.03601142       1.02412770       0.00000000
Si      -1.96393869       2.79898038       0.60417651       0.00000000
Si      -0.45427923       2.50623279       2.45853947       0.00000000
Si      -1.66185693      -1.20010059       2.89827209       0.00000000
Si       1.75342302       3.19059198      -0.79111964       0.00000000
Si       1.96529076      -3.12710985       0.96609070       0.00000000
