10
Lattice="16.28999089631971 0.0 0.0 0.0 16.28999089631971 0.0 0.0 0.0 34.40246978574605" Properties=species:S:1:pos:R:3:initial_magmoms:R:1 pbc="T T T"
Si       0.52629732      -2.28491685       0.02600828       0.00000000
Si       0.02484225       0.93511116       2.16023549       0.00000000
Si      -2.34966960       0.29706444      -0.34178873       0.00000000
Si       1.71913257       1.17802764      -1.22015308       0.00000000
Si      -2.06544168       2.50592328      -1.40644256       0.00000000
Si       2.36154501       1.17372708       2.39135141       0.00000000
Si       0.74468106      -2.61472419      -2.46197972       0.00000000
Si      -1.46302119      -3.29908338       0.78767939       0.00000000
Si      -1.16895411       3.05308809       1.92196385       0.00000000
Si       3.47640003      -0.72645255       1.35968957       0.00000000
