10
Lattice="16.28999089631971 0.0 0.0 0.0 16.28999089631971 0.0 0.0 0.0 34.40246978574605" Properties=species:S:1:pos:R:3:initial_magmoms:R:1 pbc="T T T"
Si       1.99404261      -1.12712139      -0.77219827       0.00000000
Si      -2.16055899      -1.10126916      -0.19089941       0.00000000
Si      -0.17816373       1.77587064      -1.67048166       0.00000000
Si      -0.21838374       0.32980734       2.48798801       0.00000000
Si       0.76331682       0.32148315      -3.26548426       0.00000000
Si       3.21211107       0.04422735       1.24843192       0.00000000
Si      -0.74468106       2.61472419       2.46197972       0.00000000
Si      -1.75342302      -3.19059198       0.79111964       0.00000000
Si       2.84903955       2.50668891      -0.95824693       0.00000000
Si       2.10083985      -3.30716322       0.46377995       0.00000000
