10
Lattice="16.28999089631971 0.0 0.0 0.0 16.28999089631971 0.0 0.0 0.0 34.40246978574605" Properties=species:S:1:pos:R:3:initial_magmoms:R:1 pbc="T T T"
Si      -1.57271805       1.60813251      -0.59471583       0.00000000
Si       2.36538945      -0.01280394       0.29988650       0.00000000
Si      -0.39053646       0.00342090       2.35416232       0.00000000
Si      -0.81119313      -1.54838079      -1.67460996       0.00000000
Si      -1.81319103      -2.75053392       0.09615496       0.00000000
Si       1.30833135      -1.92476124      -2.59711270       0.00000000
Si       2.80609911      -2.04530724      -0.80818327       0.00000000
Si      -3.43111709      -1.10452716       0.90475106       0.00000000
Si      -3.65200134       0.41728464      -0.93182582       0.00000000
Si      -0.72125604       2.98830276      -2.28380923       0.00000000
