10
Lattice="16.28999089631971 0.0 0.0 0.0 16.28999089631971 0.0 0.0 0.0 34.40246978574605" Properties=species:S:1:pos:R:3:initial_magmoms:R:1 pbc="T T T"
Si      -1.35681039      -1.34451144       1.37376707       0.00000000
Si       1.35312885       1.37205783       1.36822827       0.00000000
Si      -1.36780614       1.37251395      -1.38222320       0.00000000
Si       1.39848021      -1.28889738      -1.48510385       0.00000000
Si       0.63203571       2.25699579      -2.64096315       0.00000000
Si       2.30684319       0.54183798      -2.66587915       0.00000000
Si       2.70796815      -2.69430084      -0.00756511       0.00000000
Si      -2.70096345      -2.70778896       0.00898937       0.00000000
Si      -0.00283446      -2.70182682       2.72960357       0.00000000
Si       2.71495656       0.01319490       2.72932835       0.00000000
