10
Lattice="16.28999089631971 0.0 0.0 0.0 16.28999089631971 0.0 0.0 0.0 34.40246978574605" Properties=species:S:1:pos:R:3:initial_magmoms:R:1 pbc="T T T"
Si      -1.52559108      -1.41664356      -1.10232455       0.00000000
Si       0.16982325       2.13728058      -1.09272626       0.00000000
Si      -1.22596911       0.37473516       2.04653527       0.00000000
Si       2.29596147      -0.81759510       0.05686731       0.00000000
Si       2.39557482       2.12099058      -1.67323386       0.00000000
Si       0.34642314      -0.26000469       3.67057357       0.00000000
Si       3.08938221      -0.11490966      -2.03876030       0.00000000
Si      -2.37705309      -2.79681381       0.58676885       0.00000000
Si      -3.45831813       0.01874979      -1.40936677       0.00000000
Si      -1.62518814       2.72952375       2.05345017       0.00000000
