10
Lattice="16.28999089631971 0.0 0.0 0.0 16.28999089631971 0.0 0.0 0.0 34.40246978574605" Properties=species:S:1:pos:R:3:initial_magmoms:R:1 pbc="T T T"
Si      -1.32488199      -1.35127454      -1.36069757       0.00000000
Si       1.36089918      -1.35284670       1.35783184       0.00000000
Si      -1.35536058       1.36178861       1.35810706       0.00000000
Si       1.36915821       1.36608917      -1.38731821       0.00000000
Si      -2.54736504       0.03884351      -2.80014243       0.00000000
Si       2.71559187      -2.70710219       0.00006880       0.00000000
Si      -2.71637379      -2.70956198      -0.00395629       0.00000000
Si       0.00180819      -2.71128872       2.71494123       0.00000000
Si      -2.71350675       0.00331013       2.71504443       0.00000000
Si      -2.71197549       2.71731209      -0.00254578       0.00000000
