10
Lattice="16.28999089631971 0.0 0.0 0.0 16.28999089631971 0.0 0.0 0.0 34.40246978574605" Properties=species:S:1:pos:R:3:initial_magmoms:R:1 pbc="T T T"
Si       1.35469269      -1.35425549      -1.35776303       0.00000000
Si       1.35620766       1.35587338       1.35759102       0.00000000
Si      -1.36089918       1.35284670      -1.35783184       0.00000000
Si      -1.35909099      -1.35844202       1.35710939       0.00000000
Si      -2.68578117       0.00157216      -2.71852940       0.00000000
Si      -0.02236617      -2.70702596      -2.70311365       0.00000000
Si       2.70757719       0.00353230      -2.71488962       0.00000000
Si       2.71184517      -0.00087501       2.71432198       0.00000000
Si      -0.00128691       2.71326695       2.71421877       0.00000000
Si       2.71394658       2.71390226       0.00010321       0.00000000
