10
Lattice="16.28999089631971 0.0 0.0 0.0 16.28999089631971 0.0 0.0 0.0 34.40246978574605" Properties=species:S:1:pos:R:3:initial_magmoms:R:1 pbc="T T T"
Si      -1.35527913       1.35556305      -1.35459800       0.00000000
Si      -1.36910934      -1.35107977       1.35146738       0.00000000
Si       1.37036367       1.33616329       1.36756774       0.00000000
Si       1.35852084      -1.36059313      -1.35607731       0.00000000
Si      -0.08544105      -2.66016046       2.74679793       0.00000000
Si       2.70707220      -2.70942142       0.00220176       0.00000000
Si       0.00162900       2.71284259      -2.71225783       0.00000000
Si      -2.71285515       2.71253308       0.00894465       0.00000000
Si      -2.71378368      -0.00190493      -2.71181060       0.00000000
Si       2.71476108      -0.00129937      -2.71215462       0.00000000
