10
Lattice="16.28999089631971 0.0 0.0 0.0 16.28999089631971 0.0 0.0 0.0 34.40246978574605" Properties=species:S:1:pos:R:3:initial_magmoms:R:1 pbc="T T T"
Si       1.36793646       1.89900675      -0.15057969       0.00000000
Si      -1.23189867       0.27217332       1.97786790       0.00000000
Si      -1.47764961       0.20891925      -1.88928149       0.00000000
Si       1.86256602      -1.42715061      -0.61047217       0.00000000
Si       2.56134186       0.53463780      -1.78738132       0.00000000
Si      -0.98684820      -1.91370522       2.70967764       0.00000000
Si      -1.21889925      -2.04766929      -2.70548054       0.00000000
Si      -0.23848560       3.72325869      -0.47730013       0.00000000
Si      -3.42969660       0.92559780       1.37967742       0.00000000
Si      -3.68224047       0.72226602      -0.99000043       0.00000000
