10
Lattice="16.28999089631971 0.0 0.0 0.0 16.28999089631971 0.0 0.0 0.0 34.40246978574605" Properties=species:S:1:pos:R:3:initial_magmoms:R:1 pbc="T T T"
Si      -1.34185617      -1.36215351      -1.38958534       0.00000000
Si       1.36914192       1.35358497      -1.38521622       0.00000000
Si       1.44886518      -1.29572289       1.42725606       0.00000000
Si      -1.57242483       1.31144274       1.50208148       0.00000000
Si      -2.67965613       2.71883358      -0.03488412       0.00000000
Si      -0.24873201       1.69780896       3.41630477       0.00000000
Si      -2.72404638      -2.68516215      -0.02243042       0.00000000
Si       2.71811682      -2.69470809      -0.04303751       0.00000000
Si       2.73725757       2.70342324      -0.01854294       0.00000000
Si      -2.69524566      -0.00649971      -2.74862126       0.00000000
