10
Lattice="16.28999089631971 0.0 0.0 0.0 16.28999089631971 0.0 0.0 0.0 34.40246978574605" Properties=species:S:1:pos:R:3:initial_magmoms:R:1 pbc="T T T"
Si      -1.36793646      -1.89900675       0.15057969       0.00000000
Si       1.19340540      -1.36436895      -1.63680162       0.00000000
Si      -1.60642206       1.82425194      -0.32672044       0.00000000
Si       1.50083028       0.43357464       1.93139014       0.00000000
Si       0.16172712       2.97051408      -1.39928684       0.00000000
Si       0.49462956      -3.32615736      -0.45989247       0.00000000
Si       0.32773851       0.03168405      -3.43911362       0.00000000
Si       0.59539950       2.51304201       2.63316651       0.00000000
Si      -2.59983513      -1.62683343       2.12844759       0.00000000
Si      -2.84558607      -1.69008750      -1.73870179       0.00000000
