10
Lattice="16.28999089631971 0.0 0.0 0.0 16.28999089631971 0.0 0.0 0.0 34.40246978574605" Properties=species:S:1:pos:R:3:initial_magmoms:R:1 pbc="T T T"
Si      -2.03365989      -1.14341139      -0.38675278       0.00000000
Si       1.55478276      -0.00954594       1.80613067       0.00000000
Si      -0.10679724       2.18004183      -1.23597822       0.00000000
Si       1.11977460      -1.90535985      -1.26965826       0.00000000
Si       2.21869800       2.24218818      -0.97740912       0.00000000
Si       0.31561875      -3.52388538       0.39414932       0.00000000
Si       3.32293194       1.13671620       0.73356427       0.00000000
Si       1.11127122       3.35139057       0.78465197       0.00000000
Si       0.21079260       0.83254932       3.64535654       0.00000000
Si      -1.88897211      -3.01053861       1.29343038       0.00000000
