10
Lattice="16.28999089631971 0.0 0.0 0.0 16.28999089631971 0.0 0.0 0.0 34.40246978574605" Properties=species:S:1:pos:R:3:initial_magmoms:R:1 pbc="T T T"
Si      -1.34431596      -1.33955928       1.35587090       0.00000000
Si       1.35293337      -1.34799750      -1.35645574       0.00000000
Si      -1.36388025       1.36384767      -1.35576769       0.00000000
Si       1.35697329       1.36331010       1.38494100       0.00000000
Si      -2.49132744       0.21269853       2.70462048       0.00000000
Si       2.70448209      -2.70480789       0.00553880       0.00000000
Si      -0.00480555      -2.70780525      -2.71445959       0.00000000
Si       2.71024875       0.00658116      -2.71518204       0.00000000
Si       2.70120780       2.72904741      -0.00058484       0.00000000
Si      -2.71972953      -2.71059084       0.00196094       0.00000000
