10
Lattice="16.28999089631971 0.0 0.0 0.0 16.28999089631971 0.0 0.0 0.0 34.40246978574605" Properties=species:S:1:pos:R:3:initial_magmoms:R:1 pbc="T T T"
Si      -1.45886724      -0.29162358       1.75604065       0.00000000
Si       1.26780183       1.94395086       0.08432050       0.00000000
Si      -1.32369282      -0.38636622      -1.91422329       0.00000000
Si       1.24287813      -2.45571750       2.07976807       0.00000000
Si       2.78920638       1.35242838       1.82759783       0.00000000
Si      -3.41933616      -0.88148448      -0.76951487       0.00000000
Si      -0.33739848       3.47174109       1.09018047       0.00000000
Si      -0.35463330      -1.39709556       3.46701404       0.00000000
Si       3.18306600      -1.02916962       1.75662549       0.00000000
Si       0.24873201      -1.69780896      -3.41630477       0.00000000
