10
Lattice="16.28999089631971 0.0 0.0 0.0 16.28999089631971 0.0 0.0 0.0 34.40246978574605" Properties=species:S:1:pos:R:3:initial_magmoms:R:1 pbc="T T T"
Si       2.30120685       0.00684180       0.48844654       0.00000000
Si      -1.23110046      -2.06280270       0.24487692       0.00000000
Si      -1.11485502       1.90017963       1.03166184       0.00000000
Si       0.48039210      -1.84404429      -2.57323737       0.00000000
Si       1.34493498       2.86444989      -1.23900564       0.00000000
Si       2.25279297      -0.92714535       2.60468125       0.00000000
Si      -2.95010271      -1.55846430      -1.33368129       0.00000000
Si       2.10284352      -0.26412606      -2.97894593       0.00000000
Si      -1.75726746       1.90448019      -2.57984265       0.00000000
Si       2.81854467       2.28231045       0.47970831       0.00000000
