10
Lattice="16.28999089631971 0.0 0.0 0.0 16.28999089631971 0.0 0.0 0.0 34.40246978574605" Properties=species:S:1:pos:R:3:initial_magmoms:R:1 pbc="T T T"
Si      -1.28366829       1.30908069      -1.39533055       0.00000000
Si       1.06357410       1.64665836       1.34479330       0.00000000
Si       1.44827874      -1.41499827      -1.35907033       0.00000000
Si      -2.18730717      -0.38102310       1.42718726       0.00000000
Si      -2.40002199      -2.56560984      -0.03939085       0.00000000
Si       0.84051513      -1.66715118       3.15322894       0.00000000
Si      -1.18783422       2.86250065       1.99465631       0.00000000
Si      -2.72958498       2.48559336       0.09422842       0.00000000
Si      -2.62966212      -0.05305653      -2.74631630       0.00000000
Si       0.08544105       2.66016046      -2.74679793       0.00000000
