10
Lattice="16.28999089631971 0.0 0.0 0.0 16.28999089631971 0.0 0.0 0.0 34.40246978574605" Properties=species:S:1:pos:R:3:initial_magmoms:R:1 pbc="T T T"
Si       1.74806361      -1.03496886      -1.14391716       0.00000000
Si      -1.31696505       0.32781996      -1.95880892       0.00000000
Si       0.57866967       1.54862744       1.73030759       0.00000000
Si      -0.71172639      -1.99923912       1.12675032       0.00000000
Si      -1.35413883      -1.99493856      -2.48475417       0.00000000
Si       0.14890689      -1.41841917       3.24012962       0.00000000
Si       3.22167330      -1.61710830       0.57479679       0.00000000
Si      -0.54490050       0.81748107       3.60565607       0.00000000
Si       0.33361920       3.73450598       0.99849784       0.00000000
Si      -3.04842915      -2.23785504       0.89563440       0.00000000
