10
Lattice="16.28999089631971 0.0 0.0 0.0 16.28999089631971 0.0 0.0 0.0 34.40246978574605" Properties=species:S:1:pos:R:3:initial_magmoms:R:1 pbc="T T T"
Si      -0.77203197       0.16707024      -2.22418972       0.00000000
Si       0.20764863       2.35364436      -0.03674186       0.00000000
Si       2.21030865      -0.69475221      -0.62726058       0.00000000
Si      -1.59115833      -1.32315525       1.56531325       0.00000000
Si       0.17892936       2.32945371      -2.51368666       0.00000000
Si      -0.10010205      -1.93811904      -2.94065596       0.00000000
Si      -3.02661684       0.48283560       1.87256188       0.00000000
Si       1.91140344      -2.61957861      -1.96008181       0.00000000
Si       2.31609591       2.90020385       0.86997014       0.00000000
Si       1.03597884       0.27342765       3.66032162       0.00000000
