10
Lattice="16.28999089631971 0.0 0.0 0.0 16.28999089631971 0.0 0.0 0.0 34.40246978574605" Properties=species:S:1:pos:R:3:initial_magmoms:R:1 pbc="T T T"
Si       0.84123093      -1.53246776      -1.61653856       0.00000000
Si      -1.00432737      -1.69867463       1.34752971       0.00000000
Si       1.79375936       1.11246854       1.18296196       0.00000000
Si      -1.70311950       1.87019463       0.04889148       0.00000000
Si      -1.41172398       0.00512646      -2.85619785       0.00000000
Si      -2.35581093      -0.34891781       2.70757707       0.00000000
Si       0.38227158       2.36756091       2.69620705       0.00000000
Si      -2.69184105      -2.62164974      -0.06584636       0.00000000
Si      -2.43810801       1.98832971      -2.21338734       0.00000000
Si       2.68331228      -2.76635381      -0.06281894       0.00000000
