10
Lattice="16.28999089631971 0.0 0.0 0.0 16.28999089631971 0.0 0.0 0.0 34.40246978574605" Properties=species:S:1:pos:R:3:initial_magmoms:R:1 pbc="T T T"
Si       1.96565633      -0.55781588      -1.09812745       0.00000000
Si      -1.02638403       1.98320324       0.64281051       0.00000000
Si      -2.10844728      -0.54655949      -0.90671200       0.00000000
Si       2.25295491      -1.53759422       1.23965929       0.00000000
Si       1.41172398      -0.00512646       2.85619785       0.00000000
Si      -3.25658277       0.87504993       0.65798200       0.00000000
Si      -0.29139552       1.86506816       2.90508933       0.00000000
Si       1.14736986      -1.99117298      -2.78722085       0.00000000
Si       2.35922761       1.20574019      -2.64672109       0.00000000
Si      -2.31609591      -2.90020385      -0.86997014       0.00000000
