10
Lattice="16.28999089631971 0.0 0.0 0.0 16.28999089631971 0.0 0.0 0.0 34.40246978574605" Properties=species:S:1:pos:R:3:initial_magmoms:R:1 pbc="T T T"
Si      -1.35827649      -1.35659862      -1.35748781       0.00000000
Si       1.35749457      -1.35749457       1.35759102       0.00000000
Si      -1.35757602       1.35790182       1.35793505       0.00000000
Si       1.35941679       1.36021500      -1.35704058       0.00000000
Si      -2.71267596       0.00081450       2.71452840       0.00000000
Si      -0.00187335       2.71368594      -2.71428758       0.00000000
Si      -2.71511946      -2.71441899       0.00051604       0.00000000
Si       0.00068418      -2.71511946       2.71463160       0.00000000
Si      -2.71534752       2.71500543       0.00044723       0.00000000
Si       2.71521720      -2.71533123       0.00055044       0.00000000
