10
Lattice="16.28999089631971 0.0 0.0 0.0 16.28999089631971 0.0 0.0 0.0 34.40246978574605" Properties=species:S:1:pos:R:3:initial_magmoms:R:1 pbc="T T T"
Si      -1.37021706      -1.32945948       1.34830235       0.00000000
Si      -1.35278676       1.35783666      -1.35566448       0.00000000
Si       1.35907048      -1.35668007      -1.35662775       0.00000000
Si       1.35844169       1.37572308       1.37138642       0.00000000
Si       0.08189767      -2.50401735       2.70420765       0.00000000
Si      -2.71340901       0.00043983      -2.71421877       0.00000000
Si       0.00209899      -2.71448415      -2.71435638       0.00000000
Si       2.71326959       2.71634121       0.00065365       0.00000000
Si      -2.71477737      -2.71502172       0.00030962       0.00000000
Si       0.00241570       2.71568961      -2.71483802       0.00000000
