10
Lattice="16.28999089631971 0.0 0.0 0.0 16.28999089631971 0.0 0.0 0.0 34.40246978574605" Properties=species:S:1:pos:R:3:initial_magmoms:R:1 pbc="T T T"
Si       1.35544203      -1.35783666       1.35748781       0.00000000
Si       1.35681039       1.35762489      -1.35704058       0.00000000
Si      -1.35769005      -1.35785295      -1.35728140       0.00000000
Si      -1.35997065       1.36028016       1.35893272       0.00000000
Si       2.70000234       0.02772558       2.70548054       0.00000000
Si       2.71319724      -2.71355562       0.00141050       0.00000000
Si       2.71453302      -0.00021177      -2.71408116       0.00000000
Si      -0.00019548      -2.71524652      -2.71390915       0.00000000
Si      -2.71336014       2.71593396      -0.00010321       0.00000000
Si      -2.71459818      -2.71513249       0.00037843       0.00000000
