10
Lattice="16.28999089631971 0.0 0.0 0.0 16.28999089631971 0.0 0.0 0.0 34.40246978574605" Properties=species:S:1:pos:R:3:initial_magmoms:R:1 pbc="T T T"
Si       1.35482790       1.34061813      -1.37073277       0.00000000
Si       1.32803085      -1.34068329       1.41483676       0.00000000
Si      -1.35844169      -1.37572308      -1.37138642       0.00000000
Si      -1.33740949       1.36342413       1.43224442       0.00000000
Si      -2.13935171      -0.38102310       2.92864949       0.00000000
Si      -0.40331922      -2.20651308       3.02439161       0.00000000
Si      -2.70951800       2.69294877       0.00141050       0.00000000
Si       2.70197832       2.71166598      -0.00729333       0.00000000
Si      -0.00013358       2.69757513      -2.73049115       0.00000000
Si       2.69702616      -2.73289185       0.00681169       0.00000000
