10
Lattice="16.28999089631971 0.0 0.0 0.0 16.28999089631971 0.0 0.0 0.0 34.40246978574605" Properties=species:S:1:pos:R:3:initial_magmoms:R:1 pbc="T T T"
Si      -1.34667801      -1.35000117      -1.36091774       0.00000000
Si      -1.35531171       1.35707103       1.35532046       0.00000000
Si       1.36109466      -1.35583299       1.35549247       0.00000000
Si       1.36726211       1.33512840      -1.37385996       0.00000000
Si      -2.62676250       0.18199188      -2.65705216       0.00000000
Si       0.08231337      -2.70839169      -2.64157448       0.00000000
Si      -2.71270854       0.00009774       2.71291148       0.00000000
Si       0.00175932       2.71503801       2.71242984       0.00000000
Si       0.00307881      -2.71526607       2.71256745       0.00000000
Si       2.71335755      -2.71451673      -0.00199534       0.00000000
