10
Lattice="16.28999089631971 0.0 0.0 0.0 16.28999089631971 0.0 0.0 0.0 34.40246978574605" Properties=species:S:1:pos:R:3:initial_magmoms:R:1 pbc="T T T"
Si      -1.14111450       1.10364750       1.70189113       0.00000000
Si       2.18667186       0.67114800      -0.49443257       0.00000000
Si       0.49826223      -2.25046350       0.50571659       0.00000000
Si      -1.33947783       0.83267964      -1.76550133       0.00000000
Si      -2.96192925      -0.74723859      -1.35979278       0.00000000
Si      -0.75026853      -2.96191296      -1.41088048       0.00000000
Si       2.13643350       2.99454183      -0.81317163       0.00000000
Si      -3.44232135       1.09680570       1.21344459       0.00000000
Si      -0.62377668       3.37911615       1.69315290       0.00000000
Si       3.64156434      -0.13217706       1.23363885       0.00000000
