10
Lattice="16.28999089631971 0.0 0.0 0.0 16.28999089631971 0.0 0.0 0.0 34.40246978574605" Properties=species:S:1:pos:R:3:initial_magmoms:R:1 pbc="T T T"
Si       0.15679125      -1.96045263       1.14377955       0.00000000
Si      -1.83593187       1.40721165       0.13100468       0.00000000
Si       2.12584500       1.01990061      -0.26579363       0.00000000
Si      -0.96299964      -2.18183373      -1.06554829       0.00000000
Si      -0.14814126      -1.01291220      -3.18140457       0.00000000
Si      -0.76212765       3.17801610       1.21798572       0.00000000
Si       1.58452830       3.01881393       0.85724122       0.00000000
Si      -1.78751799       2.34119880      -1.98523003       0.00000000
Si       2.45843793      -2.31399450       1.43389574       0.00000000
Si       3.64713619      -0.29116746       1.07057106       0.00000000
