10
Lattice="16.28999089631971 0.0 0.0 0.0 16.28999089631971 0.0 0.0 0.0 34.40246978574605" Properties=species:S:1:pos:R:3:initial_magmoms:R:1 pbc="T T T"
Si      -1.68520050      -0.37183554       1.58795009       0.00000000
Si       1.39888324       1.82693979       0.46838989       0.00000000
Si       1.60074892      -1.73838735       0.05531920       0.00000000
Si      -1.21604850       0.33782202      -2.04722332       0.00000000
Si      -0.13313817       3.15677394       1.63078119       0.00000000
Si      -1.38629529       1.55299086       2.92077132       0.00000000
Si       0.84655939      -2.97215937      -1.83389348       0.00000000
Si      -0.67473180      -1.66109130      -3.17025817       0.00000000
Si       3.68003222      -0.54753948       0.39242919       0.00000000
Si      -3.69670599       0.30962403       0.60737594       0.00000000
