10
Lattice="16.28999089631971 0.0 0.0 0.0 16.28999089631971 0.0 0.0 0.0 34.40246978574605" Properties=species:S:1:pos:R:3:initial_magmoms:R:1 pbc="T T T"
Si       1.43361774       0.98137476      -1.56455640       0.00000000
Si       1.85668975      -1.19990511       0.92577098       0.00000000
Si      -1.59865173      -1.83741426      -0.13970851       0.00000000
Si      -1.29891573       2.15713809       0.92879840       0.00000000
Si      -2.22892812       0.53489844       2.40453242       0.00000000
Si       0.48014775      -2.35548513       2.42001010       0.00000000
Si      -0.12458592       1.18895823      -3.35878381       0.00000000
Si      -3.47542263      -0.80519841       0.85211525       0.00000000
Si       0.38859795       3.08011320       2.34217447       0.00000000
Si       3.16041543       0.29413224       2.27217917       0.00000000
