10
Lattice="16.28999089631971 0.0 0.0 0.0 16.28999089631971 0.0 0.0 0.0 34.40246978574605" Properties=species:S:1:pos:R:3:initial_magmoms:R:1 pbc="T T T"
Si      -1.35697329      -1.35767376      -1.35697178       0.00000000
Si       1.35739683       1.35697329      -1.35759102       0.00000000
Si      -1.35725022       1.35826020       1.35669656       0.00000000
Si       1.35760860      -1.35812988       1.35669656       0.00000000
Si       2.71270854      -0.00009774      -2.71291148       0.00000000
Si       0.00001629       2.71316466       2.71301469       0.00000000
Si       0.00029322      -2.71270854       2.71542286       0.00000000
Si       2.71446786       2.71494027      -0.00048163       0.00000000
Si      -2.71467963       2.71489140      -0.00027522       0.00000000
Si      -2.71521720      -2.71541268      -0.00006880       0.00000000
