10
Lattice="16.28999089631971 0.0 0.0 0.0 16.28999089631971 0.0 0.0 0.0 34.40246978574605" Properties=species:S:1:pos:R:3:initial_magmoms:R:1 pbc="T T T"
Si      -0.82860714       1.85359023      -1.40602973       0.00000000
Si       1.87502365      -0.84134592      -1.42415984       0.00000000
Si       0.60789476       0.43046325       2.39654619       0.00000000
Si      -1.75624119      -1.85129334      -0.06574316       0.00000000
Si      -2.19129822       0.51341193      -2.80273638       0.00000000
Si       0.54185628      -2.21744367      -2.80411248       0.00000000
Si       0.86090436      -2.05680798       2.87480959       0.00000000
Si       2.23072721       2.23994016       2.10347139       0.00000000
Si      -3.53553273      -0.85232538      -1.41721053       0.00000000
Si       3.32217350      -2.08008639      -0.03670746       0.00000000
