10
Lattice="16.28999089631971 0.0 0.0 0.0 16.28999089631971 0.0 0.0 0.0 34.40246978574605" Properties=species:S:1:pos:R:3:initial_magmoms:R:1 pbc="T T T"
Si       2.11952448      -0.37638045      -0.92250274       0.00000000
Si      -1.00199790      -1.20215313       1.77076491       0.00000000
Si      -1.45749888       0.12973356      -1.92533530       0.00000000
Si       0.81119313       1.54838079       1.67460996       0.00000000
Si      -0.76152492       3.15651330       1.07989413       0.00000000
Si      -2.84080821       1.96566543       0.74278414       0.00000000
Si      -2.61992396       0.44385363       2.57936102       0.00000000
Si       3.61729224      -0.49692645       0.86642669       0.00000000
Si       0.82606590      -2.33455248       2.84463861       0.00000000
Si       2.17885266      -2.59729389      -1.68967825       0.00000000
