10
Lattice="16.28999089631971 0.0 0.0 0.0 16.28999089631971 0.0 0.0 0.0 34.40246978574605" Properties=species:S:1:pos:R:3:initial_magmoms:R:1 pbc="T T T"
Si       1.74234419       0.52787745       1.37307214       0.00000000
Si       1.12881392      -0.90127683      -1.78954867       0.00000000
Si      -1.54796607       1.62707778      -0.50571659       0.00000000
Si      -0.23388042       1.27653327       2.71982676       0.00000000
Si      -3.11845239      -0.02590110      -1.19538329       0.00000000
Si      -1.26083853       2.94643746       1.44535177       0.00000000
Si       2.50657325      -1.45543005       2.39417242       0.00000000
Si      -3.29260878      -1.88574669       0.41324270       0.00000000
Si       1.04218044       0.49808304      -3.73862169       0.00000000
Si       0.09300287      -2.66320975      -2.87628890       0.00000000
