10
Lattice="16.28999089631971 0.0 0.0 0.0 16.28999089631971 0.0 0.0 0.0 34.40246978574605" Properties=species:S:1:pos:R:3:initial_magmoms:R:1 pbc="T T T"
Si      -1.32700930      -1.37108043      -1.34438047       0.00000000
Si      -1.35226289       1.35868374       1.35748781       0.00000000
Si       1.36177232      -1.35723393       1.35662775       0.00000000
Si       1.37697089       1.35138582      -1.36350481       0.00000000
Si      -2.63104418       0.00612504      -2.63957913       0.00000000
Si       0.23289650      -2.58227451      -2.69177459       0.00000000
Si      -2.71027874      -0.00074934       2.71456280       0.00000000
Si      -2.70892667      -2.71634121      -0.00282100       0.00000000
Si      -2.71335755       2.71451673       0.00199534       0.00000000
Si       0.00394870       2.71386513       2.71476921       0.00000000
