10
Lattice="16.28999089631971 0.0 0.0 0.0 16.28999089631971 0.0 0.0 0.0 34.40246978574605" Properties=species:S:1:pos:R:3:initial_magmoms:R:1 pbc="T T T"
Si      -1.35482790      -1.34061813       1.37073277       0.00000000
Si      -1.35496147       1.35695700      -1.35975838       0.00000000
Si       1.36102950      -1.35865116      -1.35790064       0.00000000
Si       1.34715042       1.37104785       1.36343944       0.00000000
Si       2.68496667      -0.01005093       2.68318773       0.00000000
Si      -2.70258134       2.70549207      -0.00202975       0.00000000
Si      -2.71085389      -0.00065160      -2.71549167       0.00000000
Si       0.00301365       2.71309950      -2.71521645       0.00000000
Si      -2.71326959      -2.71634121      -0.00065365       0.00000000
Si       0.00317655      -2.71585251      -2.71494123       0.00000000
