10
Lattice="16.28999089631971 0.0 0.0 0.0 16.28999089631971 0.0 0.0 0.0 34.40246978574605" Properties=species:S:1:pos:R:3:initial_magmoms:R:1 pbc="T T T"
Si       0.70460766      -1.13984388      -1.93858026       0.00000000
Si       1.73757285       1.31194773       0.95666441       0.00000000
Si      -0.77260212      -1.79489736       1.39877080       0.00000000
Si      -1.50487020       1.59128865      -1.04676453       0.00000000
Si       3.59331336      -0.36250137       1.11673920       0.00000000
Si      -3.56207633       0.20380419      -1.34637581       0.00000000
Si       2.69392617      -0.12567735      -2.70025136       0.00000000
Si      -2.91010099      -1.19273751       2.17767755       0.00000000
Si       2.19247110       3.09435066      -0.56602415       0.00000000
Si       0.77483385       2.61205263       2.71490682       0.00000000
