10
Lattice="16.28999089631971 0.0 0.0 0.0 16.28999089631971 0.0 0.0 0.0 34.40246978574605" Properties=species:S:1:pos:R:3:initial_magmoms:R:1 pbc="T T T"
Si       0.74007425       1.09201644       1.94542635       0.00000000
Si      -2.12868339      -0.96500331       0.33731640       0.00000000
Si      -0.22088425       1.52181180      -1.83657688       0.00000000
Si       1.61792606      -1.64600676      -0.80859610       0.00000000
Si       3.04058063       1.10794806       1.44941126       0.00000000
Si      -2.02957503      -2.68540650      -1.25507160       0.00000000
Si       1.85839904       2.71265967      -1.49946689       0.00000000
Si       0.20626398      -3.51481185      -0.98294792       0.00000000
Si       2.61992396      -0.44385363      -2.57936102       0.00000000
Si       3.43111709       1.10452716      -0.90475106       0.00000000
