10
Lattice="16.28999089631971 0.0 0.0 0.0 16.28999089631971 0.0 0.0 0.0 34.40246978574605" Properties=species:S:1:pos:R:3:initial_magmoms:R:1 pbc="T T T"
Si      -0.74007425      -1.09201644      -1.94542635       0.00000000
Si       2.30050638       0.01593162      -0.49601509       0.00000000
Si      -1.06694450      -0.53178705       2.03765942       0.00000000
Si      -0.13791114       2.41891839       0.35083658       0.00000000
Si       2.72352510      -1.43446482       1.35896712       0.00000000
Si       0.90398097      -1.08678735       3.22199951       0.00000000
Si       0.47850246       3.23397225      -1.83963870       0.00000000
Si      -2.86875764      -2.05701975      -1.60810995       0.00000000
Si       2.69104284       0.01251072      -2.85017741       0.00000000
Si      -0.96095850       0.42979536      -3.78200323       0.00000000
