10
Lattice="16.28999089631971 0.0 0.0 0.0 16.28999089631971 0.0 0.0 0.0 34.40246978574605" Properties=species:S:1:pos:R:3:initial_magmoms:R:1 pbc="T T T"
Si      -1.34866539       1.37441615       1.37752038       0.00000000
Si       1.36780614      -1.37251395       1.38222320       0.00000000
Si      -1.74508254      -1.05764454      -1.37304604       0.00000000
Si       1.99984185       0.88448184      -1.25873994       0.00000000
Si      -0.44893611      -2.41398252      -2.76854860       0.00000000
Si       2.76628635      -2.66141133      -0.10288064       0.00000000
Si      -2.66090471      -2.77594632      -0.03269269       0.00000000
Si      -2.70691907      -0.00032580       2.74952261       0.00000000
Si      -2.63463546       2.82117780      -0.12726513       0.00000000
Si       0.00939933       2.71182466       2.75516462       0.00000000
