10
Lattice="16.28999089631971 0.0 0.0 0.0 16.28999089631971 0.0 0.0 0.0 34.40246978574605" Properties=species:S:1:pos:R:3:initial_magmoms:R:1 pbc="T T T"
Si       1.34980895      -1.34605899       1.35934555       0.00000000
Si       1.35642269       1.35851851      -1.35666215       0.00000000
Si      -1.35822222      -1.35654975      -1.35707498       0.00000000
Si      -1.35465467       1.35548777       1.36368026       0.00000000
Si      -2.71395051      -2.71285515       0.00254578       0.00000000
Si       2.71248374       2.71455813       0.00061924       0.00000000
Si       2.71440596       0.00058644      -2.71445959       0.00000000
Si      -0.00100998      -2.71463076      -2.71428758       0.00000000
Si       2.71393355      -2.71505430       0.00165132       0.00000000
Si      -0.00093667       2.71598513      -2.71452840       0.00000000
