10
Lattice="16.28999089631971 0.0 0.0 0.0 16.28999089631971 0.0 0.0 0.0 34.40246978574605" Properties=species:S:1:pos:R:3:initial_magmoms:R:1 pbc="T T T"
Si      -2.13446567       0.54675756       0.75616671       0.00000000
Si       1.52878392       1.36321236       1.17735638       0.00000000
Si       0.27668565      -0.28312020      -2.39224588       0.00000000
Si      -0.28422792      -2.20885884       1.06465383       0.00000000
Si      -3.05800930      -1.31398398      -0.25079414       0.00000000
Si      -1.46430810       0.63443034       3.00540144       0.00000000
Si       0.89648757       0.54716481       3.32840641       0.00000000
Si       2.06544168      -2.50592328       1.40644256       0.00000000
Si      -1.62235368      -3.31838703      -0.58869539       0.00000000
Si      -1.66483800       0.92216061      -3.22664385       0.00000000
