10
Lattice="10.86 0.0 0.0 0.0 10.86 0.0 0.0 0.0 10.86" Properties=species:S:1:pos:R:3:initial_magmoms:R:1 pbc="T T T"
Si      -1.32011988       1.29728130      -1.28180580       0.00000000
Si       1.15853394       1.15876200       1.54614906       0.00000000
Si       1.39488012      -1.41771870      -1.28180580       0.00000000
Si      -1.32011988      -1.41771870       1.43319420       0.00000000
Si       0.06706050       2.74394190      -2.50392504       0.00000000
Si      -2.67761988      -0.06021870      -2.63930580       0.00000000
Si      -2.67761988       2.65478130       0.07569420       0.00000000
Si       0.03738012      -2.77521870      -2.63930580       0.00000000
Si       2.73086646      -0.04300560       2.70231552       0.00000000
Si      -2.67761988      -2.77521870       0.07569420       0.00000000
