10
Lattice="10.86 0.0 0.0 0.0 10.86 0.0 0.0 0.0 10.86" Properties=species:S:1:pos:R:3:initial_magmoms:R:1 pbc="T T T"
Si      -1.35750000      -1.35750000      -1.35750000       0.00000000
Si      -1.35750000       1.35750000       1.35750000       0.00000000
Si       1.35750000      -1.35750000       1.35750000       0.00000000
Si       1.33598634       1.37471310      -1.44587868       0.00000000
Si      -0.23634618       2.57648070      -2.60204514       0.00000000
Si       0.00000000      -2.71500000      -2.71500000       0.00000000
Si      -2.71500000      -2.71500000       0.00000000       0.00000000
Si       0.00000000      -2.71500000       2.71500000       0.00000000
Si      -2.71500000       2.71500000       0.00000000       0.00000000
Si      -2.71500000       0.00000000      -2.71500000       0.00000000
