10
Lattice="16.28999089631971 0.0 0.0 0.0 16.28999089631971 0.0 0.0 0.0 34.376317263855086" Properties=species:S:1:pos:R:3:initial_magmoms:R:1 pbc="T T T"
Si      -2.07705875       0.90259632       0.68481100       0.00000000
Si       1.63056873       0.74924226      -1.62080989       0.00000000
Si      -1.09780169      -1.91515014      -1.03483086       0.00000000
Si       1.63297965       0.66487635       1.86522564       0.00000000
Si      -0.26723419       2.11039298      -2.26918197       0.00000000
Si       2.10354888      -1.60725285      -2.10063479       0.00000000
Si      -1.14569429       3.01670667       1.39973567       0.00000000
Si      -0.28755434       1.50230259       3.21453122       0.00000000
Si      -2.51076371       1.22427495      -2.67506338       0.00000000
Si      -2.25813839      -1.11338892      -2.98695988       0.00000000
