10
Lattice="16.28999089631971 0.0 0.0 0.0 16.28999089631971 0.0 0.0 0.0 34.376317263855086" Properties=species:S:1:pos:R:3:initial_magmoms:R:1 pbc="T T T"
Si       1.35133695       1.36238157       1.34762114       0.00000000
Si       1.35387819      -1.35666541      -1.35979037       0.00000000
Si      -1.36041048       1.35860229      -1.36003100       0.00000000
Si      -1.35498591      -1.37073671       1.38485071       0.00000000
Si      -0.15172506       2.56824882       2.68757636       0.00000000
Si       2.62109358      -0.03618009       2.70882094       0.00000000
Si      -2.71292031      -2.71093428       0.00168444       0.00000000
Si       2.71632492      -2.71238993       0.00144381       0.00000000
Si      -0.00151497      -2.71285101      -2.71686500       0.00000000
Si       2.71366965       0.00177561      -2.71717439       0.00000000
