10
Lattice="16.28999089631971 0.0 0.0 0.0 16.28999089631971 0.0 0.0 0.0 34.376317263855086" Properties=species:S:1:pos:R:3:initial_magmoms:R:1 pbc="T T T"
Si      -1.59166332      -1.01162529      -1.45446280       0.00000000
Si      -0.82513737       0.86942988       2.12707020       0.00000000
Si       1.06007175       1.63634679      -1.55033840       0.00000000
Si       2.06395929      -1.54922787       0.10880110       0.00000000
Si      -1.06398135      -1.47610206       2.65216874       0.00000000
Si       2.52231102      -0.06599079       2.11046643       0.00000000
Si      -0.14318910      -2.30263874      -2.85306405       0.00000000
Si      -3.30090786      -2.04376783      -0.14379622       0.00000000
Si       2.56313376       0.43047954      -2.89029362       0.00000000
Si       1.09053405       1.39007457       3.46238461       0.00000000
