10
Lattice="16.28999089631971 0.0 0.0 0.0 16.28999089631971 0.0 0.0 0.0 34.376317263855086" Properties=species:S:1:pos:R:3:initial_magmoms:R:1 pbc="T T T"
Si      -2.31327774       0.35028387      -0.00364389       0.00000000
Si       0.90927522       2.14845552      -0.55638101       0.00000000
Si       0.59737059      -0.52401509       2.27901360       0.00000000
Si       0.31381056      -2.07313775      -1.29306590       0.00000000
Si       3.16144917       1.53968193      -0.24915969       0.00000000
Si      -3.01097844      -1.05346453       1.79516667       0.00000000
Si       1.49468895      -3.33970154       0.34696036       0.00000000
Si       0.35751663      -2.88183851       2.35990112       0.00000000
Si      -0.61616925       0.95373063       3.67926492       0.00000000
Si      -3.27393162      -0.27256428      -2.06615533       0.00000000
