10
Lattice="16.28999089631971 0.0 0.0 0.0 16.28999089631971 0.0 0.0 0.0 34.376317263855086" Properties=species:S:1:pos:R:3:initial_magmoms:R:1 pbc="T T T"
Si      -1.35552348      -1.35679410      -1.35738402       0.00000000
Si       1.35910728       1.35826020      -1.35704026       0.00000000
Si      -1.35622395       1.36197432       1.35862157       0.00000000
Si       1.36041048      -1.35860229       1.36003100       0.00000000
Si       2.71174743       0.00377928       2.70765214       0.00000000
Si      -2.71363707       2.71410948      -0.00003438       0.00000000
Si      -2.71344159       0.00105885      -2.71459616       0.00000000
Si       0.00182448      -2.71406875      -2.71487117       0.00000000
Si       2.71428867      -2.71526770       0.00024063       0.00000000
Si      -2.71492398      -2.71514064      -0.00037814       0.00000000
