10
Lattice="16.28999089631971 0.0 0.0 0.0 16.28999089631971 0.0 0.0 0.0 34.376317263855086" Properties=species:S:1:pos:R:3:initial_magmoms:R:1 pbc="T T T"
Si       0.07555302      -0.74412720       2.17856595       0.00000000
Si      -2.22858603       0.59300487      -0.41880691       0.00000000
Si       0.51023538      -1.98443151      -1.27611836       0.00000000
Si       1.07183313       2.17220634       0.07009335       0.00000000
Si       1.23303897       2.55927303      -2.22597092       0.00000000
Si       2.27814021      -1.33196814       2.51706973       0.00000000
Si       0.37548450      -1.15279443      -3.50171114       0.00000000
Si       0.26166627       1.13753070       3.58225490       0.00000000
Si      -2.90253591       1.98268848       1.45092203       0.00000000
Si      -2.49051294       1.24815609      -2.71662437       0.00000000
