10
Lattice="16.28999089631971 0.0 0.0 0.0 16.28999089631971 0.0 0.0 0.0 34.376317263855086" Properties=species:S:1:pos:R:3:initial_magmoms:R:1 pbc="T T T"
Si      -2.16026577       0.81164925      -0.44936747       0.00000000
Si      -0.02976183      -0.14727789       2.38595839       0.00000000
Si       0.71092818      -1.90298151      -1.33620820       0.00000000
Si       1.90576710       1.58478894      -0.50509151       0.00000000
Si       1.76875191       2.89440720       1.49468311       0.00000000
Si       0.58722192      -1.19935125      -3.60803715       0.00000000
Si       2.62883133      -2.86707258      -0.10931675       0.00000000
Si      -2.82668967       0.25791957      -2.66230975       0.00000000
Si      -0.95434965      -3.60496071      -1.15336047       0.00000000
Si      -2.48381775       3.11471316       0.20574237       0.00000000
