10
Lattice="16.28999089631971 0.0 0.0 0.0 16.28999089631971 0.0 0.0 0.0 34.376317263855086" Properties=species:S:1:pos:R:3:initial_magmoms:R:1 pbc="T T T"
Si       0.96471009      -2.20102335       0.18556346       0.00000000
Si      -1.26579816       0.43763085      -2.00630613       0.00000000
Si       1.81444536       1.63447344       0.04211101       0.00000000
Si      -1.29613014      -0.09122400       2.08244971       0.00000000
Si      -3.30331878       0.82702701      -0.77590829       0.00000000
Si       2.40655428      -1.68275700       1.90878046       0.00000000
Si       0.92289366       2.89088856       2.01080943       0.00000000
Si       0.12509091       1.19254203       3.47262876       0.00000000
Si       3.69841644       0.16299774       0.18411966       0.00000000
Si       1.84598280      -2.59613730      -1.98492404       0.00000000
