10
Lattice="16.28999089631971 0.0 0.0 0.0 16.28999089631971 0.0 0.0 0.0 34.376317263855086" Properties=species:S:1:pos:R:3:initial_magmoms:R:1 pbc="T T T"
Si       0.29561463      -1.09445994      -2.04662957       0.00000000
Si      -1.27309608       1.98123867      -0.20598301       0.00000000
Si       2.19209643       0.82264500       0.41492238       0.00000000
Si      -0.29405079      -1.42550532       1.90403652       0.00000000
Si      -1.94500971       1.41625260       2.06536467       0.00000000
Si       1.87074360      -2.67856470      -1.43105251       0.00000000
Si      -2.45464236      -2.32577217       1.32854228       0.00000000
Si      -0.59869008       0.12316869       3.59053959       0.00000000
Si       0.31662873       3.72273741      -0.27824207       0.00000000
Si       3.21518988       0.88140303      -1.82541784       0.00000000
