10
Lattice="16.28999089631971 0.0 0.0 0.0 16.28999089631971 0.0 0.0 0.0 34.376317263855086" Properties=species:S:1:pos:R:3:initial_magmoms:R:1 pbc="T T T"
Si       0.30463929      -1.54867401      -1.68650307       0.00000000
Si      -1.05873597      -1.50138414       1.42284486       0.00000000
Si       1.66158000       1.21652091       1.22397431       0.00000000
Si      -1.34631963       1.29308391      -1.52517492       0.00000000
Si      -2.33614890       2.76268626      -0.02526661       0.00000000
Si      -2.33264655      -0.11626173       2.78630318       0.00000000
Si       0.59869008      -0.12316869      -3.59053959       0.00000000
Si      -2.87225280      -2.30718528      -0.02169147       0.00000000
Si       2.39661738      -2.66924682      -0.97305658       0.00000000
Si       0.39527685       2.56486050       2.78057264       0.00000000
