10
Lattice="16.28999089631971 0.0 0.0 0.0 16.28999089631971 0.0 0.0 0.0 34.376317263855086" Properties=species:S:1:pos:R:3:initial_magmoms:R:1 pbc="T T T"
Si       2.31281022       0.49529745       0.13863977       0.00000000
Si      -1.10801552       2.09302065      -0.13547714       0.00000000
Si      -1.06202885      -0.61603893       2.07244620       0.00000000
Si      -0.14974745      -1.52699202      -1.98224269       0.00000000
Si      -1.62162293       0.34384932      -2.91373828       0.00000000
Si      -3.12170387       0.87853599      -1.10389292       0.00000000
Si       1.20466668      -3.28643908      -0.89928496       0.00000000
Si       0.18540464      -2.35880992       2.92319177       0.00000000
Si       2.54148924       2.09618091       1.84972191       0.00000000
Si      -3.26202593      -1.21397967       1.54225996       0.00000000
