10
Lattice="16.28999089631971 0.0 0.0 0.0 16.28999089631971 0.0 0.0 0.0 34.376317263855086" Properties=species:S:1:pos:R:3:initial_magmoms:R:1 pbc="T T T"
Si      -1.35483930      -1.35505107      -1.35638711       0.00000000
Si       1.35713619      -1.35097857       1.36247172       0.00000000
Si       1.35992178       1.35991681      -1.35569958       0.00000000
Si      -1.35148356       1.36183354       1.36284986       0.00000000
Si       0.00213399      -2.71217097      -2.71342737       0.00000000
Si      -2.71249677       0.00219915      -2.71356487       0.00000000
Si      -2.71363707      -2.71420722       0.00134068       0.00000000
Si      -2.71389771       2.71622948       0.00075628       0.00000000
Si       2.71746522      -2.71318095       0.00165006       0.00000000
Si       2.71730232       0.00275301      -2.71363363       0.00000000
