10
Lattice="16.28999089631971 0.0 0.0 0.0 16.28999089631971 0.0 0.0 0.0 34.376317263855086" Properties=species:S:1:pos:R:3:initial_magmoms:R:1 pbc="T T T"
Si      -2.31433659      -0.25042617       0.24276569       0.00000000
Si       0.94390776       1.89187173       1.03249327       0.00000000
Si       0.91347804      -1.72760337       1.31816062       0.00000000
Si       0.64127214      -0.32751045      -2.26110353       0.00000000
Si       2.33895078      -1.87564689      -1.99974025       0.00000000
Si       0.83375478       1.12138731       3.34633010       0.00000000
Si      -3.22226951       1.49542200      -1.05775987       0.00000000
Si       2.30092992      -0.63995265       2.87107725       0.00000000
Si       1.86015510      -3.25684341      -0.14970895       0.00000000
Si      -2.91865324       0.59715882       2.39905577       0.00000000
