10
Lattice="16.28999089631971 0.0 0.0 0.0 16.28999089631971 0.0 0.0 0.0 34.376317263855086" Properties=species:S:1:pos:R:3:initial_magmoms:R:1 pbc="T T T"
Si      -1.24743348       1.74277099      -0.85074558       0.00000000
Si      -0.80346027      -0.84144203       2.05278293       0.00000000
Si      -0.01252864      -1.54351564      -1.79767614       0.00000000
Si       2.24254330       0.73802008       0.29745844       0.00000000
Si       1.09434265      -2.20259275       2.70115501       0.00000000
Si       2.96671525      -0.73914246       2.02576313       0.00000000
Si      -0.18540464       2.35880992      -2.92319177       0.00000000
Si      -0.68297454       1.02952963       3.59676171       0.00000000
Si      -3.04698978      -1.72756006       1.64690153       0.00000000
Si      -3.44743056       1.14483025      -1.38093181       0.00000000
