10
Lattice="16.28999089631971 0.0 0.0 0.0 16.28999089631971 0.0 0.0 0.0 34.376317263855086" Properties=species:S:1:pos:R:3:initial_magmoms:R:1 pbc="T T T"
Si       2.30366664      -0.49555809      -0.21124259       0.00000000
Si      -0.01075140       1.12831056       2.10018790       0.00000000
Si      -1.08217728       1.16991522      -1.77811600       0.00000000
Si      -0.82899810      -2.38383103      -0.53544582       0.00000000
Si      -2.26292535       1.73708415       1.79296658       0.00000000
Si       0.81594981      -0.67272813       3.41955169       0.00000000
Si      -2.51395425       2.62598058      -0.42619782       0.00000000
Si       2.88399789       0.09663228      -2.57915340       0.00000000
Si       3.57260877       1.52831151      -0.04022031       0.00000000
Si      -0.68002605      -2.41183972      -2.98840368       0.00000000
