10
Lattice="16.28999089631971 0.0 0.0 0.0 16.28999089631971 0.0 0.0 0.0 34.376317263855086" Properties=species:S:1:pos:R:3:initial_magmoms:R:1 pbc="T T T"
Si       0.14897205      -0.02800868      -2.45295787       0.00000000
Si       0.82899810       2.38383103       0.53544582       0.00000000
Si      -2.02939191      -0.10067808       1.59172751       0.00000000
Si       1.71786195      -2.05173138      -0.03502949       0.00000000
Si      -0.84851352      -1.36724187       3.23175377       0.00000000
Si       3.13266474       1.88827294       0.32420323       0.00000000
Si      -0.25317918       3.55374625      -1.24267019       0.00000000
Si       2.81391831      -1.57441809       1.98519906       0.00000000
Si      -0.71153091       2.07050917      -3.24433551       0.00000000
Si       1.44016632      -0.66952488       3.66276428       0.00000000
