10
Lattice="16.28999089631971 0.0 0.0 0.0 16.28999089631971 0.0 0.0 0.0 34.376317263855086" Properties=species:S:1:pos:R:3:initial_magmoms:R:1 pbc="T T T"
Si      -0.98447963      -1.57892943       1.45541644       0.00000000
Si       1.72796175       1.01328687       1.32629204       0.00000000
Si      -0.01008351      -0.24286761      -2.49331568       0.00000000
Si      -1.67538252       1.85953608       0.30416255       0.00000000
Si      -0.73139168       2.13778557      -2.01108444       0.00000000
Si      -2.09167672      -2.95565858      -0.04534239       0.00000000
Si      -2.35927374      -0.27202671       2.85470865       0.00000000
Si       0.37991538       2.44757250       2.83344689       0.00000000
Si      -2.94981668      -1.44125449      -1.86013794       0.00000000
Si       3.28417803       2.30106024      -0.01509121       0.00000000
