10
Lattice="16.28999089631971 0.0 0.0 0.0 16.28999089631971 0.0 0.0 0.0 34.376317263855086" Properties=species:S:1:pos:R:3:initial_magmoms:R:1 pbc="T T T"
Si      -0.69403545      -1.61337789      -1.51451826       0.00000000
Si       1.38091959      -0.87501735       1.73212047       0.00000000
Si      -2.28416751       0.33236487       0.63565284       0.00000000
Si       1.27848807       1.67928723      -1.24755163       0.00000000
Si       1.53463203       2.77361685       0.93256126       0.00000000
Si      -2.88419337       1.33926606      -1.42565543       0.00000000
Si       2.72826549       1.04620896       1.98011136       0.00000000
Si      -1.98990495      -0.22823919      -2.91748530       0.00000000
Si      -2.40839505       1.92187791       2.28031990       0.00000000
Si      -2.05071552      -3.23275050      -0.40938779       0.00000000
