10
Lattice="16.28999089631971 0.0 0.0 0.0 16.28999089631971 0.0 0.0 0.0 34.376317263855086" Properties=species:S:1:pos:R:3:initial_magmoms:R:1 pbc="T T T"
Si      -0.63752544       1.83166389       1.35356825       0.00000000
Si       2.17295568      -0.68303970       0.69278631       0.00000000
Si      -1.49507991      -1.88040357       0.07782803       0.00000000
Si      -0.01417230       0.94447791      -2.21146410       0.00000000
Si      -2.81430927       2.31156729       0.66693530       0.00000000
Si       0.79451217       3.61826964       0.70409612       0.00000000
Si      -1.36032903      -2.71204065       2.30342080       0.00000000
Si       2.95570647      -2.43170604      -0.64710016       0.00000000
Si       2.63277351       2.83535595      -0.49911003       0.00000000
Si      -3.67003926      -1.18675908      -0.63279960       0.00000000
