10
Lattice="16.28999089631971 0.0 0.0 0.0 16.28999089631971 0.0 0.0 0.0 34.376317263855086" Properties=species:S:1:pos:R:3:initial_magmoms:R:1 pbc="T T T"
Si      -0.48698955       0.75914658      -2.16823109       0.00000000
Si      -2.02955481      -0.59722398       1.15584862       0.00000000
Si       0.73076940       2.08243215       1.11967441       0.00000000
Si       1.90772190      -1.72700064      -0.37134560       0.00000000
Si      -2.73228912       0.37049976      -1.50665849       0.00000000
Si      -0.61195014      -1.92528252       2.52506498       0.00000000
Si       2.11367637       0.81370179       2.53234245       0.00000000
Si       0.78390738      -3.29406606       1.07896595       0.00000000
Si       3.50430480      -0.54569871       1.16628528       0.00000000
Si       1.10472264       2.72166804      -2.37438598       0.00000000
