10
Lattice="16.28999089631971 0.0 0.0 0.0 16.28999089631971 0.0 0.0 0.0 34.376317263855086" Properties=species:S:1:pos:R:3:initial_magmoms:R:1 pbc="T T T"
Si      -0.12048573      -1.87097166      -1.54397878       0.00000000
Si       0.26247100       2.26245294      -0.85332380       0.00000000
Si       1.94078734       0.23372892       1.49176112       0.00000000
Si      -0.99894582      -0.96465796       2.12493886       0.00000000
Si       1.21947917       2.61438210       1.97399237       0.00000000
Si      -2.95504902       0.29494674       2.07089926       0.00000000
Si      -2.67847740       2.33109900       0.95064321       0.00000000
Si      -0.67606173       3.56195511       0.87917481       0.00000000
Si       1.77731719      -3.23212238      -0.89560669       0.00000000
Si       0.68297454      -1.02952963      -3.59676171       0.00000000
