10
Lattice="16.28999089631971 0.0 0.0 0.0 16.28999089631971 0.0 0.0 0.0 34.376317263855086" Properties=species:S:1:pos:R:3:initial_magmoms:R:1 pbc="T T T"
Si      -0.79918740      -0.49107834      -2.11775421       0.00000000
Si      -1.83826134       0.78291369       1.20320615       0.00000000
Si       1.36717083       1.85331330      -0.60021083       0.00000000
Si       1.13248080      -1.75470993       1.15487302       0.00000000
Si       2.50033581       1.34301276       1.43122439       0.00000000
Si      -1.59425343       1.72908576      -2.49864402       0.00000000
Si       1.68150267      -0.42028200       2.99648212       0.00000000
Si       1.29608127      -1.03913910      -3.06011272       0.00000000
Si      -2.87816607       2.02113288      -0.48783459       0.00000000
Si      -2.64694581      -1.89087804      -1.71235407       0.00000000
