10
Lattice="16.28999089631971 0.0 0.0 0.0 16.28999089631971 0.0 0.0 0.0 34.376317263855086" Properties=species:S:1:pos:R:3:initial_magmoms:R:1 pbc="T T T"
Si       1.77437196      -0.04282641       1.47120407       0.00000000
Si      -0.65524896       2.24350767      -0.01082855       0.00000000
Si       0.92018952      -0.23617242      -2.14209265       0.00000000
Si      -1.99969524      -1.31646006       0.38353679       0.00000000
Si      -2.16987687       1.47908313      -1.67979968       0.00000000
Si      -1.18952838      -0.28178442      -3.12862476       0.00000000
Si       1.54756629      -2.47432068      -1.97567681       0.00000000
Si      -1.67834241       2.18474964       2.22951168       0.00000000
Si       2.05716636      -2.33914626       1.70300371       0.00000000
Si      -3.57482421       0.26764470      -0.23204027       0.00000000
