10
Lattice="16.28999089631971 0.0 0.0 0.0 16.28999089631971 0.0 0.0 0.0 34.376317263855086" Properties=species:S:1:pos:R:3:initial_magmoms:R:1 pbc="T T T"
Si      -1.24618500       1.35143469       1.42171590       0.00000000
Si       1.47054717      -1.37577195       1.39615709       0.00000000
Si      -1.86196329      -0.84918141      -1.38745786       0.00000000
Si       0.86897376       1.66311356      -1.61107592       0.00000000
Si      -2.56315005       2.57727741      -0.12267196       0.00000000
Si       2.69962767       2.61358293      -0.00062565       0.00000000
Si      -2.59235802      -0.01167993       2.77883178       0.00000000
Si      -2.68361460      -2.72665278      -0.15107369       0.00000000
Si       0.12092067       2.70803072       2.77945056       0.00000000
Si       0.12241935      -2.72160288       2.77683796       0.00000000
