10
Lattice="16.28999089631971 0.0 0.0 0.0 16.28999089631971 0.0 0.0 0.0 34.376317263855086" Properties=species:S:1:pos:R:3:initial_magmoms:R:1 pbc="T T T"
Si       1.37375199      -0.90489321      -1.67756522       0.00000000
Si       0.20478159       2.38062779       0.29223324       0.00000000
Si      -2.28867984      -0.69771699      -0.43101051       0.00000000
Si       0.78314175      -0.97033014       2.09620025       0.00000000
Si      -0.98715771       2.51959778       2.25876594       0.00000000
Si       0.01081656       0.72658761       3.63708515       0.00000000
Si      -3.42585216      -0.23985396       1.58193025       0.00000000
Si       2.96645787       0.81158965      -2.22188013       0.00000000
Si      -0.59293971      -2.88982971       2.48503099       0.00000000
Si       1.96309161      -3.16790001      -1.10358353       0.00000000
