10
Lattice="16.28999089631971 0.0 0.0 0.0 16.28999089631971 0.0 0.0 0.0 34.376317263855086" Properties=species:S:1:pos:R:3:initial_magmoms:R:1 pbc="T T T"
Si       0.84698226       0.74968209       2.09657839       0.00000000
Si       1.98457812      -1.08302436      -0.76782985       0.00000000
Si      -1.72727757      -1.66268772       0.31595291       0.00000000
Si      -0.96443316       1.77199362      -1.42331784       0.00000000
Si       1.13950179      -2.25769626      -2.63343363       0.00000000
Si      -1.91396097       0.53406765      -3.21222801       0.00000000
Si      -0.89783964       1.90677708       3.16557932       0.00000000
Si       2.31803442       2.57613318       1.61472528       0.00000000
Si       2.46580101      -2.92413645       0.64617200       0.00000000
Si      -0.01891269      -0.66583746      -3.96218217       0.00000000
