10
Lattice="16.28999089631971 0.0 0.0 0.0 16.28999089631971 0.0 0.0 0.0 34.376317263855086" Properties=species:S:1:pos:R:3:initial_magmoms:R:1 pbc="T T T"
Si      -0.52608555       1.73747089      -1.47680741       0.00000000
Si       1.74482190      -1.15709499      -1.06900094       0.00000000
Si      -1.88892324      -1.42374600       0.20577675       0.00000000
Si       0.57085047       1.27858811       2.33030310       0.00000000
Si       1.71225819       2.48096767      -1.80293572       0.00000000
Si      -2.16008658      -1.23370686       2.55392117       0.00000000
Si       3.21587406       0.66935610      -1.55085404       0.00000000
Si       1.85735322       3.14057258       0.36682989       0.00000000
Si      -1.38662109       3.53156516      -0.01072542       0.00000000
Si       0.89783964      -1.90677708      -3.16557932       0.00000000
