10
Lattice="16.28999089631971 0.0 0.0 0.0 16.28999089631971 0.0 0.0 0.0 34.376317263855086" Properties=species:S:1:pos:R:3:initial_magmoms:R:1 pbc="T T T"
Si       1.35707103       1.35738054       1.35655899       0.00000000
Si      -1.35760860       1.35417141      -1.36051227       0.00000000
Si      -1.35837423      -1.35747991       1.35655899       0.00000000
Si       1.35738054      -1.35667844      -1.35961848       0.00000000
Si       2.70417043       0.00130320      -2.72376089       0.00000000
Si       2.71356119       2.71523349      -0.00010313       0.00000000
Si       2.71462963      -0.00009774       2.71421802       0.00000000
Si       2.71424359      -2.71475306      -0.00044689       0.00000000
Si      -0.00078192       2.71498914       2.71401176       0.00000000
Si      -0.00096111      -2.71499801       2.71432115       0.00000000
