10
Lattice="16.28999089631971 0.0 0.0 0.0 16.28999089631971 0.0 0.0 0.0 34.376317263855086" Properties=species:S:1:pos:R:3:initial_magmoms:R:1 pbc="T T T"
Si       1.35140211       1.35772263      -1.38189435       0.00000000
Si      -1.36976094      -1.35462753      -1.37745980       0.00000000
Si      -1.31703021       1.40447493       1.41420811       0.00000000
Si       1.27793421      -1.48641363       1.44005911       0.00000000
Si      -2.66207922      -0.15244182       2.65766895       0.00000000
Si       2.68109195       2.70526401      -0.01151607       0.00000000
Si      -2.71422351       2.71218726      -0.01667252       0.00000000
Si       2.70605149      -2.73545101       0.00130630       0.00000000
Si       2.70467824      -0.00058644      -2.73711266       0.00000000
Si      -0.00887805       2.71278999      -2.73752518       0.00000000
