10
Lattice="16.28999089631971 0.0 0.0 0.0 16.28999089631971 0.0 0.0 0.0 34.376317263855086" Properties=species:S:1:pos:R:3:initial_magmoms:R:1 pbc="T T T"
Si       1.38165264      -1.36589695      -1.30764146       0.00000000
Si      -1.14380235       1.41540552      -1.51245568       0.00000000
Si       2.00637414       1.18307754       0.62148979       0.00000000
Si      -0.58033125      -0.59219037       2.36791081       0.00000000
Si       0.68861088       1.43167923       2.53893308       0.00000000
Si       3.42606297      -0.61665795       1.15556055       0.00000000
Si       0.02234988      -2.52555973      -2.75852912       0.00000000
Si      -2.60949510       2.69265555      -0.30409307       0.00000000
Si      -2.88399789      -0.09663228       2.57915340       0.00000000
Si      -2.65559580       0.17119161      -2.83852286       0.00000000
