10
Lattice="16.28999089631971 0.0 0.0 0.0 16.28999089631971 0.0 0.0 0.0 34.376317263855086" Properties=species:S:1:pos:R:3:initial_magmoms:R:1 pbc="T T T"
Si       1.49817501      -1.37303849      -1.09914898       0.00000000
Si       0.37864476       0.23964219       2.27062578       0.00000000
Si      -2.18997873      -0.65151855      -0.58680406       0.00000000
Si       0.51896682       2.33215785      -0.37552710       0.00000000
Si       0.05664033       2.63220336       2.08698739       0.00000000
Si       2.01904776       1.79747118      -2.18537246       0.00000000
Si      -1.47590658       2.96956926      -1.53040012       0.00000000
Si      -3.38191803      -0.51254856       1.37972864       0.00000000
Si       3.49092324      -0.07337016      -1.25387687       0.00000000
Si      -3.01667994       1.14952014      -1.90616786       0.00000000
