10
Lattice="16.28999089631971 0.0 0.0 0.0 16.28999089631971 0.0 0.0 0.0 34.376317263855086" Properties=species:S:1:pos:R:3:initial_magmoms:R:1 pbc="T T T"
Si      -1.95610320       1.25960470      -0.05403960       0.00000000
Si      -0.93136446      -2.11411035      -0.71492467       0.00000000
Si       0.85813995      -1.51440409       1.81479556       0.00000000
Si       0.99894582       0.96465796      -2.12493886       0.00000000
Si       2.93973317       1.19838688      -0.63317774       0.00000000
Si       1.14569429      -3.01670667      -1.39973567       0.00000000
Si       2.77867394      -2.35183032       0.46548997       0.00000000
Si      -2.52389115       1.56502591       2.19186000       0.00000000
Si       2.94981668       1.44125449       1.86013794       0.00000000
Si       1.96533704      -0.13767493       3.31555438       0.00000000
