10
Lattice="16.28999089631971 0.0 0.0 0.0 16.28999089631971 0.0 0.0 0.0 34.376317263855086" Properties=species:S:1:pos:R:3:initial_magmoms:R:1 pbc="T T T"
Si       1.35689184      -1.35681039       1.35679962       0.00000000
Si      -1.35754344       1.35832536       1.35710901       0.00000000
Si      -1.35863487      -1.35584928      -1.35851844       0.00000000
Si       1.35855342       1.35716877      -1.35827781       0.00000000
Si       2.71357191       0.00141723      -2.71318673       0.00000000
Si       2.71461447      -0.00092853       2.71408052       0.00000000
Si      -2.71210581      -0.00154755      -2.71669312       0.00000000
Si      -0.00115659       2.71461447       2.71442428       0.00000000
Si       2.71474479      -2.71441899      -0.00065315       0.00000000
Si      -0.00140094      -2.71518462       2.71421802       0.00000000
