10
Lattice="16.28999089631971 0.0 0.0 0.0 16.28999089631971 0.0 0.0 0.0 34.376317263855086" Properties=species:S:1:pos:R:3:initial_magmoms:R:1 pbc="T T T"
Si      -1.99487340       0.63741141      -1.15487302       0.00000000
Si       1.50008094      -0.53468667      -1.80984536       0.00000000
Si      -0.51896682      -2.33215785       0.37552710       0.00000000
Si      -0.46232649       0.30004551       2.46251449       0.00000000
Si       2.01368835       1.21448466       0.96841577       0.00000000
Si      -0.14032206      -2.09251566       2.64615288       0.00000000
Si       3.12170387      -0.87853599       1.10389292       0.00000000
Si      -2.60991864       1.22520348       2.23975583       0.00000000
Si      -2.77762419       2.38607775       0.18501344       0.00000000
Si      -1.17543753       1.21670010      -3.26743641       0.00000000
