10
Lattice="16.28999089631971 0.0 0.0 0.0 16.28999089631971 0.0 0.0 0.0 34.376317263855086" Properties=species:S:1:pos:R:3:initial_magmoms:R:1 pbc="T T T"
Si      -0.27657162      -2.03615226       1.12025605       0.00000000
Si       2.00241567       1.23085611      -0.07146840       0.00000000
Si      -1.37914398       1.49397219       1.28416243       0.00000000
Si      -0.52797519      -0.26733519      -2.56340903       0.00000000
Si      -2.44827297       2.33307009      -0.60100149       0.00000000
Si       2.94094840      -0.06864606      -1.80396701       0.00000000
Si      -1.32209640       1.94025303      -2.64470907       0.00000000
Si       2.67847740      -2.33109900      -0.95064321       0.00000000
Si      -2.47389714      -2.66422950       0.90162255       0.00000000
Si      -0.84435957      -1.73073105       3.36615566       0.00000000
