10
Lattice="16.28999089631971 0.0 0.0 0.0 16.28999089631971 0.0 0.0 0.0 34.376317263855086" Properties=species:S:1:pos:R:3:initial_magmoms:R:1 pbc="T T T"
Si      -1.35638685      -1.35628911      -1.35731527       0.00000000
Si       1.35773892       1.35826020      -1.35752153       0.00000000
Si      -1.35536058       1.35891180       1.35948098       0.00000000
Si       1.35856971      -1.35878148       1.35824343       0.00000000
Si       0.00115659      -2.71461447      -2.71442428       0.00000000
Si      -2.71384884       0.00055386      -2.71524931       0.00000000
Si      -2.71428867       2.71523349       0.00044689       0.00000000
Si       2.71461447       2.71520091      -0.00024063       0.00000000
Si       0.00105885       2.71534752      -2.71452741       0.00000000
Si      -2.71494027      -2.71508688      -0.00106567       0.00000000
