10
Lattice="16.28999089631971 0.0 0.0 0.0 16.28999089631971 0.0 0.0 0.0 34.376317263855086" Properties=species:S:1:pos:R:3:initial_magmoms:R:1 pbc="T T T"
Si      -0.54902187      -1.33442793      -1.84160910       0.00000000
Si      -1.71194868       0.95980680       1.32067009       0.00000000
Si       1.43754363      -1.16594046       1.61108139       0.00000000
Si       0.81883314       1.76329476      -1.56525773       0.00000000
Si      -1.68150267       0.42028200      -2.99648212       0.00000000
Si       1.57825665      -1.60057395      -2.89445315       0.00000000
Si       2.98988714       0.64164681       2.06639596       0.00000000
Si       2.45783520       0.59825025      -2.72899985       0.00000000
Si      -3.00328956      -0.92486475       2.13879253       0.00000000
Si      -2.87036316       2.55166560      -0.00807844       0.00000000
