10
Lattice="16.28999089631971 0.0 0.0 0.0 16.28999089631971 0.0 0.0 0.0 34.376317263855086" Properties=species:S:1:pos:R:3:initial_magmoms:R:1 pbc="T T T"
Si       1.15530309       0.99873990       1.77402522       0.00000000
Si      -1.76345766      -1.02488535       1.15181353       0.00000000
Si       1.14302043      -1.90192266      -0.78298982       0.00000000
Si      -0.48122289       1.84111209      -1.41400185       0.00000000
Si      -1.32629922       0.66644019      -3.27960563       0.00000000
Si       2.69166186      -2.19352995       1.07477616       0.00000000
Si      -3.53782962      -0.98205894      -0.31939054       0.00000000
Si       2.69503389       2.40810183       0.72434379       0.00000000
Si       2.07296766      -0.74197692       3.05206866       0.00000000
Si       1.53469719       3.20986305      -1.22778523       0.00000000
