10
Lattice="16.28999089631971 0.0 0.0 0.0 16.28999089631971 0.0 0.0 0.0 34.376317263855086" Properties=species:S:1:pos:R:3:initial_magmoms:R:1 pbc="T T T"
Si      -1.35687555      -1.35694071      -1.35728089       0.00000000
Si       1.35909063       1.35811359      -1.35693713       0.00000000
Si       1.36127385      -1.35550719       1.35992787       0.00000000
Si      -1.35897696       1.36151820       1.35889658       0.00000000
Si      -2.71355562       0.00014661      -2.71428678       0.00000000
Si      -2.71423980       2.71373481      -0.00092816       0.00000000
Si       0.00104256      -2.71422351      -2.71442428       0.00000000
Si       2.71311157      -2.71599912       0.00017188       0.00000000
Si       2.71456464       2.71467963       0.00020626       0.00000000
Si      -2.71461447      -2.71520091       0.00024063       0.00000000
