10
Lattice="16.28999089631971 0.0 0.0 0.0 16.28999089631971 0.0 0.0 0.0 34.376317263855086" Properties=species:S:1:pos:R:3:initial_magmoms:R:1 pbc="T T T"
Si      -1.34337114      -1.35695700      -1.37405655       0.00000000
Si       1.37573937       1.35699971      -1.37333464       0.00000000
Si       1.18089468      -1.55132928       1.35209007       0.00000000
Si      -1.47028653       1.33457472       1.41606443       0.00000000
Si       2.42320985      -0.37634787       2.88719975       0.00000000
Si      -0.11098377       2.49423750       2.86695209       0.00000000
Si      -2.69671176      -2.71740006       0.00618774       0.00000000
Si      -2.70710478       2.70755343      -0.01210047       0.00000000
Si       2.73169195       2.69253079       0.00577522       0.00000000
Si      -2.69863398      -0.00474039      -2.73388129       0.00000000
