10
Lattice="16.28999089631971 0.0 0.0 0.0 16.28999089631971 0.0 0.0 0.0 34.376317263855086" Properties=species:S:1:pos:R:3:initial_magmoms:R:1 pbc="T T T"
Si       0.62881029       0.77719590       2.16124027       0.00000000
Si       1.97653805      -0.78788214      -1.14449137       0.00000000
Si      -0.55765557       2.08270323      -1.16473903       0.00000000
Si      -2.08564128      -1.56032136       0.22915266       0.00000000
Si      -1.91695833       0.92304045      -2.61562669       0.00000000
Si       0.73422288      -1.96286355      -2.67960105       0.00000000
Si       1.48675476       2.83194224       1.29846298       0.00000000
Si      -0.56956356      -3.33135387      -1.08409215       0.00000000
Si       2.57939837      -2.68257204       0.15211529       0.00000000
Si      -3.55265352      -0.30792987      -1.29863486       0.00000000
