10
Lattice="16.28999089631971 0.0 0.0 0.0 16.28999089631971 0.0 0.0 0.0 34.376317263855086" Properties=species:S:1:pos:R:3:initial_magmoms:R:1 pbc="T T T"
Si      -1.27330785      -1.38194586       1.40219155       0.00000000
Si      -0.89935461      -0.74270997      -2.09186883       0.00000000
Si       1.44045954       1.46106639       1.25464832       0.00000000
Si       1.28334249       2.20737645      -2.61909870       0.00000000
Si      -2.62365111       0.05214429       2.79385910       0.00000000
Si       0.10959912      -2.65067622       2.81485960       0.00000000
Si       0.72286875      -2.01973194      -3.28905912       0.00000000
Si       0.09643680       2.77052175       2.79222622       0.00000000
Si       2.80302030       0.06434550       2.78643037       0.00000000
Si      -2.00407725      -3.46437801       0.28251715       0.00000000
