10
Lattice="16.28999089631971 0.0 0.0 0.0 16.28999089631971 0.0 0.0 0.0 34.376317263855086" Properties=species:S:1:pos:R:3:initial_magmoms:R:1 pbc="T T T"
Si       1.42983846       0.04725729      -1.88444201       0.00000000
Si      -1.50361587       1.81161157      -0.25208168       0.00000000
Si       1.86354342      -0.27442134       1.47543236       0.00000000
Si      -1.47105216      -1.82645109       0.48185311       0.00000000
Si      -1.35852084       2.47121648       1.91768393       0.00000000
Si       1.68246378      -2.29040658      -2.19633851       0.00000000
Si      -3.21587406      -0.66935610       1.55085404       0.00000000
Si       0.10226862       1.42350721      -3.36303700       0.00000000
Si      -0.31915368      -3.22450776       2.00266223       0.00000000
Si      -2.31803442      -2.57613318      -1.61472528       0.00000000
