10
Lattice="16.28999089631971 0.0 0.0 0.0 16.28999089631971 0.0 0.0 0.0 34.376317263855086" Properties=species:S:1:pos:R:3:initial_magmoms:R:1 pbc="T T T"
Si       1.57706748       1.71686826      -0.30065544       0.00000000
Si      -0.22867902      -1.60088346      -1.71108215       0.00000000
Si      -1.81078988       1.58449572       0.39460597       0.00000000
Si       0.50758011      -1.46492712       1.90898672       0.00000000
Si      -0.91455318       1.93538232       2.58558177       0.00000000
Si       0.90311760       3.10655187       1.56907350       0.00000000
Si       0.96713730      -3.40829154      -0.73163157       0.00000000
Si      -0.60093810      -0.24260697       3.59194902       0.00000000
Si       1.31514057       2.37201948      -2.59847290       0.00000000
Si      -2.54148924      -2.09618091      -1.84972191       0.00000000
