10
Lattice="16.28999089631971 0.0 0.0 0.0 16.28999089631971 0.0 0.0 0.0 34.376317263855086" Properties=species:S:1:pos:R:3:initial_magmoms:R:1 pbc="T T T"
Si      -0.90529394       1.35065277       1.72933598       0.00000000
Si       1.81767078       1.17116955      -1.01650827       0.00000000
Si      -0.89623670      -0.35088660      -2.19097581       0.00000000
Si       0.31361508      -2.17798929       1.00636725       0.00000000
Si       0.91455318      -1.93538232      -2.58558177       0.00000000
Si      -0.77706558       2.02116546      -2.90194720       0.00000000
Si       0.98003898      -1.62425961       3.21930953       0.00000000
Si       1.42213329      -3.40030944      -0.67659505       0.00000000
Si      -3.07893122       0.43100082       2.12545451       0.00000000
Si      -1.86203497      -3.09839058       1.23132600       0.00000000
