10
Lattice="16.28999089631971 0.0 0.0 0.0 16.28999089631971 0.0 0.0 0.0 34.376317263855086" Properties=species:S:1:pos:R:3:initial_magmoms:R:1 pbc="T T T"
Si      -1.35929691       1.35553977       1.36027163       0.00000000
Si       1.35752389      -1.35858600       1.36009975       0.00000000
Si       1.34411722       1.37981187      -1.36489525       0.00000000
Si      -1.36276668      -1.37186235      -1.35775872       0.00000000
Si       2.61802780      -0.00531054      -2.72835357       0.00000000
Si      -2.67360669       0.00125433      -2.72505001       0.00000000
Si       2.71262383       2.71376739       0.00323138       0.00000000
Si      -2.71563489       2.71208952       0.00261260       0.00000000
Si      -0.00069070       2.71290402       2.71738065       0.00000000
Si       2.71386187      -0.00162900       2.71744940       0.00000000
