10
Lattice="16.28999089631971 0.0 0.0 0.0 16.28999089631971 0.0 0.0 0.0 34.376317263855086" Properties=species:S:1:pos:R:3:initial_magmoms:R:1 pbc="T T T"
Si       1.16576779       2.10724182       0.00422829       0.00000000
Si       1.16355235      -1.56281373      -1.46611637       0.00000000
Si       0.57058331      -1.17240759       2.19692291       0.00000000
Si      -1.98319414       1.45845999      -1.23197915       0.00000000
Si      -0.52170421       0.69296031       3.19184284       0.00000000
Si       1.07551467       2.20348314       2.36708578       0.00000000
Si       2.29598428       0.17236449      -2.72078390       0.00000000
Si      -0.58956835      -2.45076534      -2.78685522       0.00000000
Si       3.20328841       1.71784566      -1.22616955       0.00000000
Si      -0.57349012      -3.25035999       2.03848238       0.00000000
