10
Lattice="16.28999089631971 0.0 0.0 0.0 16.28999089631971 0.0 0.0 0.0 34.376317263855086" Properties=species:S:1:pos:R:3:initial_magmoms:R:1 pbc="T T T"
Si      -0.17387783       0.88808193      -2.17086565       0.00000000
Si      -1.61799089       0.95164551       1.41874578       0.00000000
Si       2.00779137       1.06368813       0.62045850       0.00000000
Si      -0.11917112      -2.37205206       0.71097139       0.00000000
Si       2.59473636      -0.84999591       1.88543893       0.00000000
Si      -3.17033441      -0.85594176       0.96343121       0.00000000
Si       0.92774808      -0.88202205      -3.21343118       0.00000000
Si       0.77706558      -2.02116546       2.90194720       0.00000000
Si       0.37903572       3.21290928      -2.08561233       0.00000000
Si       1.58728131       3.29349591       1.39141660       0.00000000
