10
Lattice="16.28999089631971 0.0 0.0 0.0 16.28999089631971 0.0 0.0 0.0 34.376317263855086" Properties=species:S:1:pos:R:3:initial_magmoms:R:1 pbc="T T T"
Si       0.90529394      -1.35065277      -1.72933598       0.00000000
Si      -2.17363727      -0.91965195       0.39611853       0.00000000
Si      -0.60128508       2.18779587      -0.96253742       0.00000000
Si       1.56178094      -0.67184847       2.14508340       0.00000000
Si      -2.79233147       0.53190108       2.37341102       0.00000000
Si       1.21890902      -3.52864206      -0.72296873       0.00000000
Si       1.88533292      -2.97491238       1.48997355       0.00000000
Si       2.72296472      -0.17948322      -2.74584425       0.00000000
Si      -1.89527375      -3.14954118       1.23448862       0.00000000
Si      -1.48976253       1.62215820      -3.21253740       0.00000000
