10
Lattice="16.28999089631971 0.0 0.0 0.0 16.28999089631971 0.0 0.0 0.0 34.376317263855086" Properties=species:S:1:pos:R:3:initial_magmoms:R:1 pbc="T T T"
Si      -0.01445412       2.21820930       0.72320937       0.00000000
Si      -1.59721888      -1.51052283       0.82475706       0.00000000
Si       0.09025312      -0.09624132      -2.36285749       0.00000000
Si       2.09744176      -1.01449233       0.49550051       0.00000000
Si      -1.07551467      -2.20348314      -2.36708578       0.00000000
Si      -0.50493136      -3.37589073      -0.17016287       0.00000000
Si       2.20068778       3.00982185      -0.08140316       0.00000000
Si      -0.34487885       2.09220615       3.08902322       0.00000000
Si       1.61680531      -3.33915678       0.97714736       0.00000000
Si       3.39357190      -0.92326833      -1.58694920       0.00000000
