10
Lattice="16.28999089631971 0.0 0.0 0.0 16.28999089631971 0.0 0.0 0.0 34.376317263855086" Properties=species:S:1:pos:R:3:initial_magmoms:R:1 pbc="T T T"
Si       2.31433659       0.25042617      -0.24276569       0.00000000
Si      -0.90793292       1.74584817      -1.30052556       0.00000000
Si      -0.55291355      -2.32482735      -0.08525331       0.00000000
Si      -0.60431665       0.84758499       2.15629008       0.00000000
Si      -2.52907856      -2.30466033      -1.29103769       0.00000000
Si      -2.74058792       2.44141488       0.10082579       0.00000000
Si       1.20824559       0.08058663       3.47702893       0.00000000
Si      -1.05603020       3.12202737       1.67777148       0.00000000
Si       3.22781463      -1.47717720       1.07539493       0.00000000
Si      -0.02423952       3.73791384      -0.34702912       0.00000000
