10
Lattice="16.28999089631971 0.0 0.0 0.0 16.28999089631971 0.0 0.0 0.0 34.376317263855086" Properties=species:S:1:pos:R:3:initial_magmoms:R:1 pbc="T T T"
Si      -1.63056873      -0.74924226       1.62080989       0.00000000
Si      -1.89780292       1.36115072      -0.64837208       0.00000000
Si       0.47298015      -2.35649511      -0.47982490       0.00000000
Si       1.87237260       1.46345029      -0.67539188       0.00000000
Si       0.00241092      -0.08436591       3.48603553       0.00000000
Si      -1.09434265       2.20259275      -2.70115501       0.00000000
Si       2.18522205      -2.71120986       1.15085099       0.00000000
Si       2.60205057       0.56376432       2.65701580       0.00000000
Si       1.15740450      -2.38236363      -2.69957370       0.00000000
Si      -1.77731719       3.23212238       0.89560669       0.00000000
