10
Lattice="10.86 0.0 0.0 0.0 10.86 0.0 0.0 0.0 10.86" Properties=species:S:1:pos:R:3:initial_magmoms:R:1 pbc="T T T"
Si       1.29785688       1.38834240       1.28386920       0.00000000
Si       1.29785688      -1.32665760      -1.43113080       0.00000000
Si      -1.41714312       1.38834240      -1.43113080       0.00000000
Si      -1.33598634      -1.79258418       1.23717120       0.00000000
Si      -2.56160250      -0.05915442       2.68021542       0.00000000
Si       2.69497416      -2.55390276      -0.27934092       0.00000000
Si       2.77125480      -0.04077930       2.59701696       0.00000000
Si      -0.05964312       2.74584240       2.64136920       0.00000000
Si       2.65535688       2.74584240      -0.07363080       0.00000000
Si       2.65535688       0.03084240      -2.78863080       0.00000000
