10
Lattice="16.28999089631971 0.0 0.0 0.0 16.28999089631971 0.0 0.0 0.0 34.51007289658418" Properties=species:S:1:pos:R:3:initial_magmoms:R:1 pbc="T T T"
Si      -1.09509918       1.43987147       1.52670922       0.00000000
Si       0.93092789       1.89094157      -1.26738801       0.00000000
Si       1.62250355      -1.27123155       1.49548449       0.00000000
Si      -1.84015491      -0.85170799      -1.63792287       0.00000000
Si       1.44354161       0.70502957      -3.23560209       0.00000000
Si      -2.44630581       2.74144247       0.06887524       0.00000000
Si      -2.54666850      -2.73729897       0.16092056       0.00000000
Si      -2.43804678       0.08908186       2.89116235       0.00000000
Si      -3.60470400       0.89260892      -1.19335319       0.00000000
Si       0.27215214      -2.62932885       2.88998900       0.00000000
