10
Lattice="16.28999089631971 0.0 0.0 0.0 16.28999089631971 0.0 0.0 0.0 34.51007289658418" Properties=species:S:1:pos:R:3:initial_magmoms:R:1 pbc="T T T"
Si      -0.84327140       1.73480355      -1.34361593       0.00000000
Si       0.92250270       1.48071213       1.60295927       0.00000000
Si       1.76238252      -1.07370648      -1.29112608       0.00000000
Si      -2.13431108      -1.14583860       0.78337909       0.00000000
Si      -2.14318945       0.29419740      -2.75480262       0.00000000
Si       0.51489432      -2.51823852      -2.61997169       0.00000000
Si      -0.92845507       1.81799658       3.07874885       0.00000000
Si       1.78206084       3.36679181       0.32805294       0.00000000
Si      -1.84608706       3.45099645       0.07540455       0.00000000
Si      -2.57747615       0.08273691       2.95765294       0.00000000
