10
Lattice="16.28999089631971 0.0 0.0 0.0 16.28999089631971 0.0 0.0 0.0 34.51007289658418" Properties=species:S:1:pos:R:3:initial_magmoms:R:1 pbc="T T T"
Si       1.03007534      -1.74247614       1.17268744       0.00000000
Si      -0.38290948      -0.99085554      -2.09862773       0.00000000
Si       1.95280610       1.37835133       0.11671313       0.00000000
Si      -1.99011413       0.85013993       1.14445819       0.00000000
Si      -1.62015194       0.90604070      -2.66507638       0.00000000
Si      -0.42997455       2.83735052      -1.82113207       0.00000000
Si       1.44467213       2.43317933       2.13310331       0.00000000
Si      -0.82351977       2.17203434       2.69033777       0.00000000
Si       3.14922515      -2.13675930       0.09372941       0.00000000
Si      -0.37335214      -3.60093708       1.19308291       0.00000000
