10
Lattice="16.28999089631971 0.0 0.0 0.0 16.28999089631971 0.0 0.0 0.0 34.51007289658418" Properties=species:S:1:pos:R:3:initial_magmoms:R:1 pbc="T T T"
Si      -0.92250270      -1.48071213      -1.60295927       0.00000000
Si      -1.85095777       0.33728445       1.47578958       0.00000000
Si       0.85955814       1.88607968      -1.27490634       0.00000000
Si       1.99068687      -0.69255306       1.26703803       0.00000000
Si      -1.01261898       3.22171307      -0.49801514       0.00000000
Si      -1.76577410       0.25409142      -2.94657520       0.00000000
Si      -2.76858976       1.97028432      -1.52755472       0.00000000
Si       3.67192890       1.00851390       0.90616600       0.00000000
Si      -3.08820023       2.23418069       0.90934093       0.00000000
Si       0.83987982      -2.55441861      -2.89408535       0.00000000
