10
Lattice="16.28999089631971 0.0 0.0 0.0 16.28999089631971 0.0 0.0 0.0 34.51007289658418" Properties=species:S:1:pos:R:3:initial_magmoms:R:1 pbc="T T T"
Si      -1.40342748      -1.85846094       0.02039546       0.00000000
Si      -1.03007534       1.74247614      -1.17268744       0.00000000
Si       2.11914981      -0.39428316      -1.07895803       0.00000000
Si       0.49331007       0.70799598       2.25092076       0.00000000
Si       2.85622344       1.77264522      -0.57414440       0.00000000
Si       0.92273076       3.12082747      -1.05597431       0.00000000
Si       0.08728182      -3.29758470       1.13600321       0.00000000
Si      -3.04965809      -1.15439085       1.53701049       0.00000000
Si      -1.41298483       0.75162060      -3.27131517       0.00000000
Si       2.16723789      -2.47132332       1.89225737       0.00000000
