10
Lattice="16.28999089631971 0.0 0.0 0.0 16.28999089631971 0.0 0.0 0.0 34.51007289658418" Properties=species:S:1:pos:R:3:initial_magmoms:R:1 pbc="T T T"
Si      -1.70712358      -0.96671376       1.37910408       0.00000000
Si       1.08181890       1.79253531       1.32078202       0.00000000
Si       1.66128678      -1.91249487       0.24986104       0.00000000
Si      -0.78143130       0.27308556      -2.72360550       0.00000000
Si      -1.68593844      -2.35919925      -1.85053467       0.00000000
Si       2.26238778       0.29683638       2.74031325       0.00000000
Si      -0.48307995      -2.43960669       2.75730257       0.00000000
Si       1.24141203       1.99451502      -2.98222413       0.00000000
Si      -3.32575730      -2.00184552      -0.06291190       0.00000000
Si       2.04444387      -1.53344286      -3.09441644       0.00000000
