10
Lattice="16.28999089631971 0.0 0.0 0.0 16.28999089631971 0.0 0.0 0.0 34.51007289658418" Properties=species:S:1:pos:R:3:initial_magmoms:R:1 pbc="T T T"
Si      -2.06128773       0.40569756       0.91962494       0.00000000
Si      -0.65658474      -0.64854304      -2.14428458       0.00000000
Si       0.85639788       2.18742283      -0.40715007       0.00000000
Si       0.95428449      -1.95951337       1.01228453       0.00000000
Si       2.04331986       2.01891907       1.60026748       0.00000000
Si      -1.17248904      -2.91242950       1.54487879       0.00000000
Si       1.36682874      -0.31830660      -3.24474240       0.00000000
Si      -3.01949811      -1.71319228       0.68078059       0.00000000
Si      -3.09821139       1.75446721      -0.60972431       0.00000000
Si       1.91158263       1.88866423      -2.51226569       0.00000000
