10
Lattice="16.28999089631971 0.0 0.0 0.0 16.28999089631971 0.0 0.0 0.0 34.51007289658418" Properties=species:S:1:pos:R:3:initial_magmoms:R:1 pbc="T T T"
Si       1.36997271      -1.34332227       1.34772263       0.00000000
Si      -1.32349734       1.38704463       1.35259891       0.00000000
Si       1.47528756       1.12067055      -1.46261505       0.00000000
Si      -1.85072319      -0.81511902      -1.24992482       0.00000000
Si      -0.13965417       1.34545626      -3.13735531       0.00000000
Si      -0.96125661      -1.02245814      -3.40670658       0.00000000
Si       2.73628017      -2.55937077      -0.12331836       0.00000000
Si      -2.68952787       0.01316232       2.70138790       0.00000000
Si       0.02893104      -2.70216891       2.70042162       0.00000000
Si       2.67634926       2.72709261      -0.04544289       0.00000000
