10
Lattice="16.28999089631971 0.0 0.0 0.0 16.28999089631971 0.0 0.0 0.0 34.51007289658418" Properties=species:S:1:pos:R:3:initial_magmoms:R:1 pbc="T T T"
Si      -1.34104167      -1.35884664       1.35269899       0.00000000
Si      -1.36997271       1.34332227      -1.34772263       0.00000000
Si       1.36630746      -1.21604850      -1.47104099       0.00000000
Si       1.37176461       1.35739683       1.35407939       0.00000000
Si       0.10531485       2.46399282      -2.81033768       0.00000000
Si       2.72184723      -2.68566714      -0.01301030       0.00000000
Si      -2.70177795       0.00042354       2.71329388       0.00000000
Si      -2.69347005       2.73036690       0.00487628       0.00000000
Si       0.01247814       2.71581993       2.71339741       0.00000000
Si       0.01306458      -2.71624347       2.71374251       0.00000000
