10
Lattice="16.28999089631971 0.0 0.0 0.0 16.28999089631971 0.0 0.0 0.0 34.51007289658418" Properties=species:S:1:pos:R:3:initial_magmoms:R:1 pbc="T T T"
Si      -0.82603332      -1.68624306       1.36342472       0.00000000
Si      -1.67146803       0.47685717      -1.58373715       0.00000000
Si       1.01825532       1.64182023       1.41498280       0.00000000
Si       1.43845587      -1.23147513      -1.48955911       0.00000000
Si       1.17817425      -1.54873917       2.62079993       0.00000000
Si       1.70603541       2.81250108      -0.52979894       0.00000000
Si       2.75805990       0.23286555       2.19076967       0.00000000
Si       1.00043406       0.02278971      -3.38847693       0.00000000
Si       0.95576688       2.30340600      -2.70224375       0.00000000
Si      -3.65150124       0.25787070      -0.41322384       0.00000000
