10
Lattice="16.28999089631971 0.0 0.0 0.0 16.28999089631971 0.0 0.0 0.0 34.51007289658418" Properties=species:S:1:pos:R:3:initial_magmoms:R:1 pbc="T T T"
Si       1.34710155       1.34833959       1.37063733       0.00000000
Si      -1.35692442       1.35513252      -1.35890390       0.00000000
Si       1.35669636      -1.35765747      -1.35804115       0.00000000
Si      -1.35804843      -1.35663120       1.38192213       0.00000000
Si       2.63534733      -0.10435374       2.75038533       0.00000000
Si      -2.71417464       2.71314837       0.00293336       0.00000000
Si       2.71568961       2.71340901       0.00386513       0.00000000
Si      -0.00017919       2.71401174      -2.71594425       0.00000000
Si      -2.71458189      -0.00058644      -2.71615132       0.00000000
Si      -2.71494027      -2.71593396       0.00124236       0.00000000
