10
Lattice="16.28999089631971 0.0 0.0 0.0 16.28999089631971 0.0 0.0 0.0 34.51007289658418" Properties=species:S:1:pos:R:3:initial_magmoms:R:1 pbc="T T T"
Si      -0.12651791       2.22832539      -0.68040098       0.00000000
Si      -1.16659436      -1.32189440      -1.54587958       0.00000000
Si      -0.67252402      -0.08835696       2.24802191       0.00000000
Si       2.26819191       0.26114499      -0.55723446       0.00000000
Si       2.12583360       2.75325435      -0.33809537       0.00000000
Si       0.82351977      -2.17203434      -2.69033777       0.00000000
Si       3.30511557      -1.08762466       0.97211479       0.00000000
Si      -3.01764335      -0.22133223       2.03136756       0.00000000
Si       0.09610286       1.95523983       3.15705225       0.00000000
Si      -0.57964218       2.26848024      -3.02908883       0.00000000
