10
Lattice="16.28999089631971 0.0 0.0 0.0 16.28999089631971 0.0 0.0 0.0 34.51007289658418" Properties=species:S:1:pos:R:3:initial_magmoms:R:1 pbc="T T T"
Si      -2.25197847       0.57614472      -0.01753113       0.00000000
Si       0.58964913       0.09093078       2.26979778       0.00000000
Si       0.85384035       1.73602530      -1.38005859       0.00000000
Si       0.09472635      -2.31927246      -0.73979285       0.00000000
Si      -2.48894910       0.66756420      -2.33405557       0.00000000
Si       2.89864260      -0.22718034       2.07567851       0.00000000
Si      -3.14711397      -1.23883821       1.17386079       0.00000000
Si      -0.48909096       1.52407611      -3.30951784       0.00000000
Si       0.72497016      -3.39835464       1.25944581       0.00000000
Si       0.27140769      -2.05372917       3.19418511       0.00000000
