10
Lattice="16.28999089631971 0.0 0.0 0.0 16.28999089631971 0.0 0.0 0.0 34.51007289658418" Properties=species:S:1:pos:R:3:initial_magmoms:R:1 pbc="T T T"
Si       1.33739271       1.34628705       1.37654891       0.00000000
Si      -1.18056888       1.49569893      -1.41953123       0.00000000
Si      -1.38153861      -1.36818081       1.37175201       0.00000000
Si       1.40095629      -1.38702834      -1.47945110       0.00000000
Si      -0.60110100      -2.20933125      -2.49045221       0.00000000
Si      -2.26238778      -0.29683638      -2.74031325       0.00000000
Si       2.69091252       2.68441462      -0.00605997       0.00000000
Si       2.66900247      -2.72448621       0.01398694       0.00000000
Si       2.68687260      -0.00364896       2.73234690       0.00000000
Si      -0.02401146       2.70725512       2.73224337       0.00000000
