10
Lattice="16.28999089631971 0.0 0.0 0.0 16.28999089631971 0.0 0.0 0.0 34.51007289658418" Properties=species:S:1:pos:R:3:initial_magmoms:R:1 pbc="T T T"
Si       0.23480406       0.71773740      -2.24125794       0.00000000
Si       1.85143995      -1.50428376       0.01052558       0.00000000
Si       0.29794410       1.90718337       1.53604420       0.00000000
Si      -2.02284333      -1.72142946       0.25861863       0.00000000
Si      -0.79970868      -2.77299783      -1.68768155       0.00000000
Si       0.80303184      -3.52795788      -0.11219231       0.00000000
Si      -1.90682595       2.98901042       0.96973359       0.00000000
Si      -0.40387797      -1.21187826      -3.47368235       0.00000000
Si       2.39363631      -1.79600508      -2.30240982       0.00000000
Si      -1.24141203      -1.99451502       2.98222413       0.00000000
