10
Lattice="16.28999089631971 0.0 0.0 0.0 16.28999089631971 0.0 0.0 0.0 34.51007289658418" Properties=species:S:1:pos:R:3:initial_magmoms:R:1 pbc="T T T"
Si       1.90254168      -0.38836989       1.35283012       0.00000000
Si      -0.52699779       1.71468540      -1.57165862       0.00000000
Si      -1.94782788       0.68131296       1.25758227       0.00000000
Si      -0.76730787      -1.79895194      -1.47068209       0.00000000
Si       0.86576463       0.35979723       3.31386611       0.00000000
Si      -1.32372540      -0.54460728       3.18707603       0.00000000
Si       3.26311506       1.50812820       0.97121752       0.00000000
Si      -3.31693722      -1.67590868      -1.07999333       0.00000000
Si      -0.45629919      -1.17138132      -3.71476985       0.00000000
Si      -1.71911628       2.84560236       2.20191643       0.00000000
