10
Lattice="16.28999089631971 0.0 0.0 0.0 16.28999089631971 0.0 0.0 0.0 34.51007289658418" Properties=species:S:1:pos:R:3:initial_magmoms:R:1 pbc="T T T"
Si      -1.60744833       1.35858600      -1.06042611       0.00000000
Si      -0.75465054      -2.26772180      -0.32491252       0.00000000
Si       0.78384222       1.27467621       1.91717366       0.00000000
Si       2.06884629      -0.20245212      -1.27966873       0.00000000
Si      -0.57067128       0.61041888      -3.02146210       0.00000000
Si      -0.71091189      -2.55247100       2.01835725       0.00000000
Si       1.63346346       3.05567820       0.49142371       0.00000000
Si       2.32139016       2.11362750      -1.60530596       0.00000000
Si       1.21080312      -3.55679837      -0.74296777       0.00000000
Si       1.60133958      -2.37813542       2.71038813       0.00000000
