10
Lattice="16.28999089631971 0.0 0.0 0.0 16.28999089631971 0.0 0.0 0.0 34.51007289658418" Properties=species:S:1:pos:R:3:initial_magmoms:R:1 pbc="T T T"
Si       1.03677705      -0.74816712      -1.96103599       0.00000000
Si       1.60744833      -1.35858600       1.06042611       0.00000000
Si      -2.18949003      -0.90440451      -0.12679008       0.00000000
Si      -0.70239222       2.26663947       0.30624256       0.00000000
Si      -0.86576463      -0.35979723      -3.31386611       0.00000000
Si      -2.81359251       0.32151573      -2.05628384       0.00000000
Si       2.39735043       1.14833097      -2.34264859       0.00000000
Si      -2.58488091       2.48580513      -1.11194968       0.00000000
Si       0.85279779      -3.62630780       0.73551359       0.00000000
Si       2.39129055      -0.08390979       2.97759977       0.00000000
