10
Lattice="16.28999089631971 0.0 0.0 0.0 16.28999089631971 0.0 0.0 0.0 34.51007289658418" Properties=species:S:1:pos:R:3:initial_magmoms:R:1 pbc="T T T"
Si       1.24998057      -1.30917843      -1.61914451       0.00000000
Si      -0.84468537      -1.97470638       1.28263660       0.00000000
Si       1.96333596       0.80777223       1.35269208       0.00000000
Si      -1.42659675       1.36881612      -1.58456539       0.00000000
Si       2.57048055      -2.66698251      -0.30434450       0.00000000
Si       2.80288998       2.70922248       0.05076435       0.00000000
Si      -2.87990910       2.63684601      -0.22338383       0.00000000
Si       3.66915960      -0.99409725       0.93442977       0.00000000
Si      -2.82289410      -2.74698270      -0.31438694       0.00000000
Si       2.62716975       0.02396259      -2.97128443       0.00000000
