10
Lattice="16.28999089631971 0.0 0.0 0.0 16.28999089631971 0.0 0.0 0.0 34.51007289658418" Properties=species:S:1:pos:R:3:initial_magmoms:R:1 pbc="T T T"
Si      -0.91417851       0.37369260       2.11898868       0.00000000
Si       1.41524262       1.72483407      -0.74210502       0.00000000
Si      -1.88248869       0.21916566      -1.41819224       0.00000000
Si       0.70239222      -2.26663947      -0.30624256       0.00000000
Si      -1.48709781      -3.17104398      -0.43303264       0.00000000
Si       3.15982017       1.64457324       0.78006612       0.00000000
Si      -2.11120029      -1.94512374      -2.36252640       0.00000000
Si      -3.13251813      -0.51686541       1.98898916       0.00000000
Si       2.02285962       1.09470429      -2.98325943       0.00000000
Si      -1.44300078       2.11025547      -2.81505724       0.00000000
