10
Lattice="16.28999089631971 0.0 0.0 0.0 16.28999089631971 0.0 0.0 0.0 34.51007289658418" Properties=species:S:1:pos:R:3:initial_magmoms:R:1 pbc="T T T"
Si       2.16950220      -0.36121446       0.70852670       0.00000000
Si      -0.53699985      -1.84673214      -1.29443905       0.00000000
Si      -0.20465127       2.15865306      -0.91703668       0.00000000
Si      -1.36487394       0.29923101       1.97439139       0.00000000
Si      -2.68447797      -1.16510967      -1.70593739       0.00000000
Si       2.48191182       1.77300360       1.67339437       0.00000000
Si       0.95055408       3.38967207       0.76829818       0.00000000
Si       1.91563884      -2.41929306       2.01183484       0.00000000
Si      -3.10467852       1.70818569       1.19860452       0.00000000
Si      -2.41689843       2.87886654      -0.74617721       0.00000000
