10
Lattice="16.28999089631971 0.0 0.0 0.0 16.28999089631971 0.0 0.0 0.0 34.51007289658418" Properties=species:S:1:pos:R:3:initial_magmoms:R:1 pbc="T T T"
Si      -0.00977400      -1.71540705      -1.65455186       0.00000000
Si      -1.99229632       1.14865677      -0.66835696       0.00000000
Si      -0.61603893      -1.14412815       2.06632628       0.00000000
Si       1.80405234       1.67830983       0.03927248       0.00000000
Si       1.11177621      -0.72060444      -3.43040669       0.00000000
Si      -2.99170493      -1.79924353       1.36842869       0.00000000
Si      -1.53271633       3.42498879      -0.28567454       0.00000000
Si       0.74665215       3.59153775      -0.84349567       0.00000000
Si       1.58873112      -2.22595520       2.63263689       0.00000000
Si      -3.74688638       0.33712155       0.68336885       0.00000000
