10
Lattice="16.28999089631971 0.0 0.0 0.0 16.28999089631971 0.0 0.0 0.0 34.51007289658418" Properties=species:S:1:pos:R:3:initial_magmoms:R:1 pbc="T T T"
Si      -1.31365818       1.35571896       1.38861709       0.00000000
Si       1.13217129       1.71339849      -1.20127215       0.00000000
Si       1.41903819      -1.34618931       1.37661103       0.00000000
Si      -1.20106170      -1.60642206      -1.41717216       0.00000000
Si      -2.58170436       2.69317683      -0.10482095       0.00000000
Si       2.82989880      -2.52623691      -0.11926688       0.00000000
Si      -0.59347728       3.51534942      -1.33835111       0.00000000
Si       2.61099378       0.63837252      -2.70681430       0.00000000
Si      -2.67634926      -2.72709261       0.04544289       0.00000000
Si      -2.65140927       0.00405621       2.75186926       0.00000000
