10
Lattice="16.28999089631971 0.0 0.0 0.0 16.28999089631971 0.0 0.0 0.0 34.51007289658418" Properties=species:S:1:pos:R:3:initial_magmoms:R:1 pbc="T T T"
Si       1.75141935       1.49644827       0.29585502       0.00000000
Si       0.80628984      -2.06676117      -0.92166103       0.00000000
Si      -1.24584291       1.59490503      -1.30596542       0.00000000
Si      -0.41264199      -0.78221322       2.24287991       0.00000000
Si       2.93594670       0.92967030      -1.65865856       0.00000000
Si      -0.67082220      -3.59644104       0.15667582       0.00000000
Si      -2.15637246       3.02001939       0.44297154       0.00000000
Si       2.79233406       0.93162510       2.30444592       0.00000000
Si      -3.14690220       0.47065068      -2.17938134       0.00000000
Si       0.07944633      -3.08734596       2.32912063       0.00000000
