10
Lattice="16.28999089631971 0.0 0.0 0.0 16.28999089631971 0.0 0.0 0.0 34.51007289658418" Properties=species:S:1:pos:R:3:initial_magmoms:R:1 pbc="T T T"
Si       1.33563339       1.34170956       1.36040854       0.00000000
Si       1.35224919      -1.39264839      -1.30135832       0.00000000
Si      -1.22124501       1.33068123      -1.51908594       0.00000000
Si      -1.38127797      -1.37135736       1.35291985       0.00000000
Si      -2.03664096      -0.57451572      -2.73108870       0.00000000
Si      -0.31099239      -2.37646665      -2.59400975       0.00000000
Si       2.69122203       2.67258564       0.00599785       0.00000000
Si       2.69381214      -0.01412343       2.71489515       0.00000000
Si      -2.73491181       2.67475465      -0.02416742       0.00000000
Si      -0.01990638       2.69769992       2.71472260       0.00000000
