10
Lattice="16.28999089631971 0.0 0.0 0.0 16.28999089631971 0.0 0.0 0.0 34.51007289658418" Properties=species:S:1:pos:R:3:initial_magmoms:R:1 pbc="T T T"
Si       0.20080683      -0.87605991      -2.20236506       0.00000000
Si      -2.27659266       0.70959240       0.13614231       0.00000000
Si       0.23617242      -1.60324551       1.76187825       0.00000000
Si       1.93479588       1.39559688       0.44535274       0.00000000
Si       1.31828454       1.63432683       2.75569988       0.00000000
Si       1.07593821       2.90232414      -1.85415823       0.00000000
Si       0.44556408      -0.29322000       3.73437159       0.00000000
Si      -3.46077792      -1.30326516      -0.74707448       0.00000000
Si      -2.06068500      -1.72283040      -2.68312516       0.00000000
Si       0.85271634      -3.25221705      -2.09024177       0.00000000
