10
Lattice="16.28999089631971 0.0 0.0 0.0 16.28999089631971 0.0 0.0 0.0 34.51007289658418" Properties=species:S:1:pos:R:3:initial_magmoms:R:1 pbc="T T T"
Si       0.04373865      -0.28474920       2.34326977       0.00000000
Si       1.96545366      -1.28907657      -0.41805526       0.00000000
Si       0.75465054       2.26772180       0.32491252       0.00000000
Si      -2.02644342      -1.14981336      -0.84642903       0.00000000
Si       1.09273320      -3.21662340       0.56061645       0.00000000
Si       2.82349683       2.06526968      -0.95475621       0.00000000
Si      -0.09179415      -2.64984543       2.51513003       0.00000000
Si      -0.85279779       3.62630780      -0.73551359       0.00000000
Si       2.35599012      -0.11041362       3.03530065       0.00000000
Si       3.65689323      -0.73581930       1.12440782       0.00000000
