10
Lattice="16.28999089631971 0.0 0.0 0.0 16.28999089631971 0.0 0.0 0.0 34.51007289658418" Properties=species:S:1:pos:R:3:initial_magmoms:R:1 pbc="T T T"
Si      -0.04373865       0.28474920      -2.34326977       0.00000000
Si      -0.13553280      -2.36509623       0.17186026       0.00000000
Si      -1.40292738       1.35191917       1.40949570       0.00000000
Si       2.31225147       0.17433558       0.69203088       0.00000000
Si       0.71091189       2.55247100      -2.01835725       0.00000000
Si       1.92171501      -1.00432737      -2.76132503       0.00000000
Si       1.04899455      -2.93187420      -1.78265332       0.00000000
Si      -2.84560236      -0.28430937       2.32604923       0.00000000
Si       0.90538191      -2.92991940       2.18045115       0.00000000
Si       2.43154314      -1.19702178       2.68812912       0.00000000
