10
Lattice="16.28999089631971 0.0 0.0 0.0 16.28999089631971 0.0 0.0 0.0 34.51007289658418" Properties=species:S:1:pos:R:3:initial_magmoms:R:1 pbc="T T T"
Si      -1.75141935      -1.49644827      -0.29585502       0.00000000
Si       1.04091471      -0.56482317       2.00859090       0.00000000
Si       1.18452735      -0.56677797      -1.95451358       0.00000000
Si       0.13553280       2.36509623      -0.17186026       0.00000000
Si      -2.99726226       0.09845676      -1.60182044       0.00000000
Si       2.44778427       2.53943181       0.52017062       0.00000000
Si       0.09179415       2.64984543      -2.51513003       0.00000000
Si      -0.65184435      -1.26975663       3.41004574       0.00000000
Si      -2.16406134      -2.27866149       1.94702489       0.00000000
Si       3.15481914      -1.61075520      -1.31428235       0.00000000
