10
Lattice="16.28999089631971 0.0 0.0 0.0 16.28999089631971 0.0 0.0 0.0 34.51007289658418" Properties=species:S:1:pos:R:3:initial_magmoms:R:1 pbc="T T T"
Si      -1.56338388      -0.82453138       1.46299089       0.00000000
Si      -1.09473687       1.89284913      -1.10260811       0.00000000
Si       1.15839819       1.84883355       1.26222843       0.00000000
Si       1.76454909      -1.74431691      -0.44456968       0.00000000
Si      -1.82850363      -1.11051374      -1.71830267       0.00000000
Si      -0.19689723      -2.19202280       2.73466018       0.00000000
Si       1.09981935       2.90273139      -1.89257863       0.00000000
Si      -3.40301358      -1.50780403       0.06123098       0.00000000
Si      -1.91617641       0.76787802      -3.11458100       0.00000000
Si       2.50960482       0.54726255       2.72006241       0.00000000
