10
Lattice="16.28999089631971 0.0 0.0 0.0 16.28999089631971 0.0 0.0 0.0 34.51007289658418" Properties=species:S:1:pos:R:3:initial_magmoms:R:1 pbc="T T T"
Si       1.35160285      -1.35358727       1.35773056       0.00000000
Si      -1.35759231      -1.35690153      -1.35666074       0.00000000
Si       1.35696244       1.35829767      -1.35652270       0.00000000
Si      -1.35708732       1.36131132       1.36263099       0.00000000
Si       2.69927485       0.01253190       2.72136234       0.00000000
Si       2.71386091      -2.71362308       0.00096628       0.00000000
Si       2.71404336       0.00180656      -2.71390816       0.00000000
Si      -0.01391166      -2.69995577       2.72819534       0.00000000
Si      -0.00055386      -2.71398146      -2.71432228       0.00000000
Si      -0.00006516       2.71536870      -2.71425326       0.00000000
