10
Lattice="16.28999089631971 0.0 0.0 0.0 16.28999089631971 0.0 0.0 0.0 34.51007289658418" Properties=species:S:1:pos:R:3:initial_magmoms:R:1 pbc="T T T"
Si      -1.14622956      -1.74048617       1.07281524       0.00000000
Si       1.16659436       1.32189440       1.54587958       0.00000000
Si       1.99011413      -0.85013993      -1.14445819       0.00000000
Si      -1.97962596       1.06060280      -1.00634880       0.00000000
Si      -1.95784623      -0.14114633      -3.06128675       0.00000000
Si      -2.83766913      -2.29374344      -0.46964784       0.00000000
Si       1.04007645       3.55021979       0.86547860       0.00000000
Si       0.36996219       0.05590076      -3.80953457       0.00000000
Si       1.56013958       1.98721058      -2.96559026       0.00000000
Si       3.43478627       1.58303939       0.98864512       0.00000000
