10
Lattice="16.28999089631971 0.0 0.0 0.0 16.28999089631971 0.0 0.0 0.0 34.51007289658418" Properties=species:S:1:pos:R:3:initial_magmoms:R:1 pbc="T T T"
Si      -0.28204506      -1.82534337      -1.54729449       0.00000000
Si      -2.11928013       0.81451629       1.04965896       0.00000000
Si       1.35338364      -1.25112087       1.77247284       0.00000000
Si       1.18991024       2.25926010      -0.53111032       0.00000000
Si      -0.93882528      -0.36341361      -3.24957381       0.00000000
Si       0.76537964       0.53341605       3.28584392       0.00000000
Si       1.78486991       2.32694505       2.00579558       0.00000000
Si      -2.94062193       2.34196443      -0.67753664       0.00000000
Si      -1.48820553       1.02806190       3.37108384       0.00000000
Si       2.31727109       1.79264934      -2.79341941       0.00000000
