10
Lattice="16.28999089631971 0.0 0.0 0.0 16.28999089631971 0.0 0.0 0.0 34.51007289658418" Properties=species:S:1:pos:R:3:initial_magmoms:R:1 pbc="T T T"
Si       1.34636850       1.35366642      -1.38658099       0.00000000
Si      -1.36316349      -1.36487394      -1.38489000       0.00000000
Si       1.52502093      -1.27456218       1.43365276       0.00000000
Si      -1.37428956       1.44505332       1.43482610       0.00000000
Si      -0.29923101      -2.22130440       2.52865798       0.00000000
Si       2.70001863       2.72451879      -0.02370843       0.00000000
Si      -2.71384558       2.71476108      -0.02778062       0.00000000
Si       0.31858353       2.47823028       2.91572318       0.00000000
Si       2.69939961      -2.73262632      -0.02098214       0.00000000
Si      -2.73608632      -2.70930393      -0.02453668       0.00000000
