10
Lattice="16.28999089631971 0.0 0.0 0.0 16.28999089631971 0.0 0.0 0.0 34.51007289658418" Properties=species:S:1:pos:R:3:initial_magmoms:R:1 pbc="T T T"
Si      -1.74457755       0.08026083      -1.52217115       0.00000000
Si      -0.64687590       1.43568657       1.78720865       0.00000000
Si       0.78348384      -2.21412051       0.46554114       0.00000000
Si       1.34767170       1.26294741      -1.56617151       0.00000000
Si       2.72471427      -1.51721802       1.53676891       0.00000000
Si      -2.27230839       2.42515746      -1.38823748       0.00000000
Si      -3.15982017      -1.64457324      -0.78006612       0.00000000
Si      -2.64155382       2.53941552       0.94681889       0.00000000
Si       1.19138544       2.76565104       2.29844116       0.00000000
Si       1.47141054      -3.15617121      -1.63118853       0.00000000
