10
Lattice="16.28999089631971 0.0 0.0 0.0 16.28999089631971 0.0 0.0 0.0 34.51007289658418" Properties=species:S:1:pos:R:3:initial_magmoms:R:1 pbc="T T T"
Si       1.26875610      -1.41245703       1.50722828       0.00000000
Si       1.13187807       1.72980252      -1.27695420       0.00000000
Si      -1.43340597       1.28500407       1.53374928       0.00000000
Si      -1.55693304      -1.11513195      -1.57560454       0.00000000
Si      -0.92007549       3.42497250      -1.17328589       0.00000000
Si      -2.75740830      -2.57795766       0.03237392       0.00000000
Si      -2.79189423       2.64549600       0.24302007       0.00000000
Si       2.61006755      -2.84627025       0.04159847       0.00000000
Si       2.75051178       2.76493428       0.16506177       0.00000000
Si       2.62245772      -0.04799034       2.89864413       0.00000000
