10
Lattice="16.28999089631971 0.0 0.0 0.0 16.28999089631971 0.0 0.0 0.0 34.51007289658418" Properties=species:S:1:pos:R:3:initial_magmoms:R:1 pbc="T T T"
Si      -0.39146499       0.53387217      -2.20850786       0.00000000
Si       1.42327100      -1.81390779       0.47503142       0.00000000
Si       0.98303375       1.96806006       0.90685620       0.00000000
Si      -2.13537465      -0.48871629       1.08689535       0.00000000
Si      -1.92415851      -1.15737192      -2.73730600       0.00000000
Si       2.30293589      -1.22078889       2.58773926       0.00000000
Si      -0.31987044       2.45164500       2.84663397       0.00000000
Si      -2.50792695       1.35866745       2.47216496       0.00000000
Si      -1.90612548       2.37894273      -2.39317136       0.00000000
Si       3.20744303       1.41149592       1.71466844       0.00000000
