10
Lattice="16.28999089631971 0.0 0.0 0.0 16.28999089631971 0.0 0.0 0.0 34.51007289658418" Properties=species:S:1:pos:R:3:initial_magmoms:R:1 pbc="T T T"
Si      -1.35527913      -1.35783666      -1.35804115       0.00000000
Si      -1.35747828       1.35734796       1.35717840       0.00000000
Si       1.35744570      -1.35739683       1.35759252       0.00000000
Si       1.35703845       1.35894438      -1.35645368       0.00000000
Si      -0.00114030       2.71477737      -2.71094029       0.00000000
Si       0.00030951      -2.71547784      -2.71356306       0.00000000
Si       2.71461447       2.71507059      -0.00006902       0.00000000
Si      -0.00073305      -2.71559187       2.71418424       0.00000000
Si       2.71466334      -2.71516833      -0.00006902       0.00000000
Si      -2.71551042       2.71443528       0.00024157       0.00000000
