10
Lattice="16.28999089631971 0.0 0.0 0.0 16.28999089631971 0.0 0.0 0.0 34.51007289658418" Properties=species:S:1:pos:R:3:initial_magmoms:R:1 pbc="T T T"
Si       0.43907872      -1.69544691       1.55854478       0.00000000
Si       1.64902108       1.73525967       0.12109591       0.00000000
Si      -2.17934136       1.04378175       0.58418684       0.00000000
Si       0.44316507      -1.22857551      -2.17427385       0.00000000
Si       0.41177862       3.63215591      -0.44535274       0.00000000
Si      -1.61922600      -2.59162497       2.36073188       0.00000000
Si       1.65857842      -0.87482187       3.41280655       0.00000000
Si       2.57747615      -0.08273691      -2.95765294       0.00000000
Si      -1.91602980       3.43510881       0.30289508       0.00000000
Si       1.46407094      -3.61905156       0.73192455       0.00000000
