10
Lattice="16.28999089631971 0.0 0.0 0.0 16.28999089631971 0.0 0.0 0.0 34.51007289658418" Properties=species:S:1:pos:R:3:initial_magmoms:R:1 pbc="T T T"
Si      -2.25235151      -0.52492896      -0.34230560       0.00000000
Si       0.82171647       0.33448257      -2.30030470       0.00000000
Si      -0.36535212       2.45578266       0.21475630       0.00000000
Si       0.14235831      -2.49210936      -0.21913909       0.00000000
Si       0.10296909      -0.47021085       2.47827325       0.00000000
Si      -2.12583360      -2.75325435       0.33809537       0.00000000
Si       3.50673201       0.29626623       0.30034133       0.00000000
Si       2.87648820       1.37534841      -1.69889733       0.00000000
Si       1.07313633       1.42190523       3.40559394       0.00000000
Si      -2.70547578      -0.48477411      -2.69099346       0.00000000
