10
Lattice="16.28999089631971 0.0 0.0 0.0 16.28999089631971 0.0 0.0 0.0 34.51007289658418" Properties=species:S:1:pos:R:3:initial_magmoms:R:1 pbc="T T T"
Si      -2.25808396       0.38783232      -0.43358480       0.00000000
Si       0.04321737       0.51535044       2.27994375       0.00000000
Si       0.89513550       1.81498293      -1.19139191       0.00000000
Si       0.36535212      -2.45578266      -0.21475630       0.00000000
Si       1.18706859      -2.12130009      -2.51506101       0.00000000
Si      -1.88699939      -2.98071162      -0.55706191       0.00000000
Si       3.14711397       1.23883821      -1.17386079       0.00000000
Si      -2.76657047       1.94759982       1.25382067       0.00000000
Si       1.43848845      -1.03387743       3.19083763       0.00000000
Si       0.46832121      -2.92599351       2.26351695       0.00000000
