10
Lattice="16.28999089631971 0.0 0.0 0.0 16.28999089631971 0.0 0.0 0.0 34.51007289658418" Properties=species:S:1:pos:R:3:initial_magmoms:R:1 pbc="T T T"
Si       0.97016724       1.89211608       0.92732069       0.00000000
Si       1.23416298      -1.92485898       0.61597064       0.00000000
Si      -2.13269983      -0.32780367       1.01687438       0.00000000
Si      -0.10296909       0.47021085      -2.47827325       0.00000000
Si       0.03938922      -2.02189851      -2.69741234       0.00000000
Si      -0.42510384       3.44134395       0.01642680       0.00000000
Si       2.95020045       2.11110255      -0.24319262       0.00000000
Si      -2.35532060      -0.05471811      -2.82057885       0.00000000
Si       1.07631288      -3.37066816      -1.16806309       0.00000000
Si      -0.46832121       2.92599351      -2.26351695       0.00000000
