10
Lattice="16.28999089631971 0.0 0.0 0.0 16.28999089631971 0.0 0.0 0.0 34.51007289658418" Properties=species:S:1:pos:R:3:initial_magmoms:R:1 pbc="T T T"
Si       2.21618608       0.00858483      -0.73420221       0.00000000
Si      -0.59360175       1.44083421      -1.76032529       0.00000000
Si      -0.19619839       0.52457058       2.28898539       0.00000000
Si      -1.05886044      -2.09658816      -0.23066546       0.00000000
Si      -0.08511525      -0.11893329      -3.44773076       0.00000000
Si       2.69283148       2.17557837      -0.00528004       0.00000000
Si      -2.42218683      -0.09187560       2.47968816       0.00000000
Si       1.23096037      -1.21202487       3.01007377       0.00000000
Si      -1.22788548      -2.02206141      -2.60071506       0.00000000
Si       1.06131956       3.09593079      -1.36694475       0.00000000
