10
Lattice="16.28999089631971 0.0 0.0 0.0 16.28999089631971 0.0 0.0 0.0 34.51007289658418" Properties=species:S:1:pos:R:3:initial_magmoms:R:1 pbc="T T T"
Si       1.35770634      -1.35397593       1.36031881       0.00000000
Si      -1.36019871       1.36238157       1.35931802       0.00000000
Si      -1.36392912      -1.36826226      -1.35476269       0.00000000
Si       1.38153861       1.36818081      -1.37175201       0.00000000
Si      -2.58797275       0.10463067      -2.73296118       0.00000000
Si       2.71278999      -2.70796815       0.00548710       0.00000000
Si      -2.71602681      -2.70829395       0.00062118       0.00000000
Si      -0.00092853      -2.71039536       2.71739368       0.00000000
Si       2.71458189       0.00462636       2.71808388       0.00000000
Si       2.71893132       2.71446786       0.00479690       0.00000000
