10
Lattice="16.28999089631971 0.0 0.0 0.0 16.28999089631971 0.0 0.0 0.0 34.51007289658418" Properties=species:S:1:pos:R:3:initial_magmoms:R:1 pbc="T T T"
Si      -1.35701174      -1.35628911       1.35728193       0.00000000
Si       1.35815238      -1.35418770      -1.35973214       0.00000000
Si       1.35829736       1.35821133       1.35738546       0.00000000
Si      -1.35785882       1.35793440      -1.36100902       0.00000000
Si      -2.69771132      -0.02119329      -2.72462699       0.00000000
Si       2.71025007      -0.01415601      -2.71511601       0.00000000
Si       0.00057640      -2.71362078       2.71497797       0.00000000
Si       2.71591899      -2.71324611       0.00048314       0.00000000
Si      -2.71422938       0.00148239       2.71494346       0.00000000
Si      -2.71597241      -2.71381626      -0.00017255       0.00000000
