10
Lattice="16.28999089631971 0.0 0.0 0.0 16.28999089631971 0.0 0.0 0.0 34.51007289658418" Properties=species:S:1:pos:R:3:initial_magmoms:R:1 pbc="T T T"
Si      -1.34511655      -1.33718094       1.37539972       0.00000000
Si      -1.35280543       1.35508365      -1.35759252       0.00000000
Si       1.36246294      -1.35793440      -1.35783409       0.00000000
Si       1.36532835       1.34376210       1.37319108       0.00000000
Si       0.09318149      -2.63801889       2.72947221       0.00000000
Si      -2.71070725       2.71451673       0.00282983       0.00000000
Si      -2.71080499      -0.00169416      -2.71477091       0.00000000
Si       0.00350329       2.71311579      -2.71511601       0.00000000
Si       0.00400078      -2.71679733      -2.71473640       0.00000000
Si       2.71955515       2.71202436       0.00379611       0.00000000
