10
Lattice="16.28999089631971 0.0 0.0 0.0 16.28999089631971 0.0 0.0 0.0 34.51007289658418" Properties=species:S:1:pos:R:3:initial_magmoms:R:1 pbc="T T T"
Si       1.27525174      -1.43062038      -1.36946399       0.00000000
Si      -1.43829804       1.30083795      -1.35407249       0.00000000
Si      -1.76502657      -1.09840212       1.17958946       0.00000000
Si       1.49106980       1.05766083       1.63574386       0.00000000
Si       2.58696815       2.61003267       0.12540967       0.00000000
Si      -2.63129619       2.60491761       0.29592404       0.00000000
Si       2.61480776      -2.70032814       0.09314274       0.00000000
Si       2.62560803      -0.07903908      -2.72736710       0.00000000
Si      -0.09318149       2.63801889      -2.72947221       0.00000000
Si      -3.47085021       0.70346736       1.59785178       0.00000000
