10
Lattice="16.28999089631971 0.0 0.0 0.0 16.28999089631971 0.0 0.0 0.0 34.51007289658418" Properties=species:S:1:pos:R:3:initial_magmoms:R:1 pbc="T T T"
Si       1.02499221      -1.92360465      -0.82662024       0.00000000
Si      -0.43907872       1.69544691      -1.55854478       0.00000000
Si       1.21949970       0.82062504       1.85426176       0.00000000
Si      -2.05830472      -0.89617806       0.80218709       0.00000000
Si      -2.13736009       0.00643455       2.95489213       0.00000000
Si      -0.42673090       1.52469513       3.37087678       0.00000000
Si       0.00550195      -3.71713365       0.45342810       0.00000000
Si       0.00408635       0.46687140      -3.73281863       0.00000000
Si       1.20994236       3.43070658      -1.43744887       0.00000000
Si      -2.61842008       2.73922866      -0.97435794       0.00000000
