10
Lattice="16.28999089631971 0.0 0.0 0.0 16.28999089631971 0.0 0.0 0.0 34.51007289658418" Properties=species:S:1:pos:R:3:initial_magmoms:R:1 pbc="T T T"
Si      -2.22598845      -0.61644618       0.19070277       0.00000000
Si       0.19619839      -0.52457058      -2.28898539       0.00000000
Si       1.42715876      -1.73659545       0.72108838       0.00000000
Si       0.44364675       2.04843492       1.12233722       0.00000000
Si       2.51268200       2.14490430      -0.03078300       0.00000000
Si      -0.86266206      -2.62115874      -2.51965085       0.00000000
Si      -2.53839807      -2.75066424      -0.77416490       0.00000000
Si       2.41238447      -0.51598575      -3.02318761       0.00000000
Si      -2.75736825      -1.07826768       2.60216448       0.00000000
Si      -3.75734619       1.00022229      -0.71439342       0.00000000
