10
Lattice="16.28999089631971 0.0 0.0 0.0 16.28999089631971 0.0 0.0 0.0 34.51007289658418" Properties=species:S:1:pos:R:3:initial_magmoms:R:1 pbc="T T T"
Si       2.05446222       1.01737566       0.36028536       0.00000000
Si       0.17119161      -1.20832704       2.02919104       0.00000000
Si      -1.50265965       1.96182099       0.10225340       0.00000000
Si       1.26646605      -0.01666467      -2.28619008       0.00000000
Si      -2.38232453       1.36870209      -2.01045444       0.00000000
Si      -0.31328928       1.46517147      -3.16357466       0.00000000
Si       1.03265568       0.51372144       3.35131788       0.00000000
Si      -1.39881253      -2.41632828      -2.41170328       0.00000000
Si       3.61232379      -0.84398490       0.22655876       0.00000000
Si       2.22772266       2.78757738      -1.14162836       0.00000000
