10
Lattice="16.28999089631971 0.0 0.0 0.0 16.28999089631971 0.0 0.0 0.0 34.51007289658418" Properties=species:S:1:pos:R:3:initial_magmoms:R:1 pbc="T T T"
Si      -1.42327100       1.81390779      -0.47503142       0.00000000
Si       0.87966489       0.59311890       2.11270784       0.00000000
Si       2.06903525       0.09646938      -1.15312022       0.00000000
Si      -0.44364675      -2.04843492      -1.12233722       0.00000000
Si       2.38232453      -1.36870209       2.01045444       0.00000000
Si       3.00730667       2.17383534      -0.70666316       0.00000000
Si      -0.44023725       3.78196785       0.43182478       0.00000000
Si      -3.55864565       1.32519150       0.61186393       0.00000000
Si      -2.66963519      -2.66488110      -0.93163445       0.00000000
Si       1.78417202       3.22540371       1.23963702       0.00000000
