10
Lattice="16.28999089631971 0.0 0.0 0.0 16.28999089631971 0.0 0.0 0.0 34.51007289658418" Properties=species:S:1:pos:R:3:initial_magmoms:R:1 pbc="T T T"
Si      -1.35630872      -1.35803214       1.35752350       0.00000000
Si      -1.35713951       1.35765747      -1.35731644       0.00000000
Si       1.35727526       1.35801585       1.35797213       0.00000000
Si       1.35821846      -1.35808101      -1.35721291       0.00000000
Si      -0.00350329      -2.71311579       2.71511601       0.00000000
Si      -2.71471553       0.00153126      -2.71370110       0.00000000
Si       0.00081118       2.71463076      -2.71418424       0.00000000
Si      -2.71417796       2.71473740       0.00034510       0.00000000
Si      -2.71430828      -2.71480995       0.00034510       0.00000000
Si       2.71390158       0.00019548      -2.71563366       0.00000000
