10
Lattice="16.28999089631971 0.0 0.0 0.0 16.28999089631971 0.0 0.0 0.0 34.36671206372826" Properties=species:S:1:pos:R:3:initial_magmoms:R:1 pbc="T T T"
Si       0.52122901       2.23683921      -0.41590618       0.00000000
Si      -1.52122326      -0.38939616       1.80076658       0.00000000
Si      -1.30310016      -1.19272122      -1.65592658       0.00000000
Si       2.14160672      -1.02504825       0.65121351       0.00000000
Si       1.37797224       2.58237618       1.82042435       0.00000000
Si       2.50327730       1.75450860      -1.59987444       0.00000000
Si      -2.88955068      -1.94916366       0.64418277       0.00000000
Si      -0.03883326      -1.58799807       3.25878547       0.00000000
Si       1.26850833      -2.96230392       1.72681969       0.00000000
Si       3.64382165      -0.28874025      -1.09427109       0.00000000
