10
Lattice="16.28999089631971 0.0 0.0 0.0 16.28999089631971 0.0 0.0 0.0 34.36671206372826" Properties=species:S:1:pos:R:3:initial_magmoms:R:1 pbc="T T T"
Si      -1.42171368       1.29532379       1.35765772       0.00000000
Si       1.34961347       1.36594093      -1.36215976       0.00000000
Si      -1.36927648      -1.34902281      -1.36449670       0.00000000
Si       1.38496277      -1.37055819       1.35975409       0.00000000
Si      -0.02156144      -2.58160566       2.80535627       0.00000000
Si      -2.75350263      -2.67333465       0.00202764       0.00000000
Si       2.70499034       0.00737937      -2.72342599       0.00000000
Si      -0.00964694      -2.70705495      -2.72315105       0.00000000
Si       2.71233713      -2.71941906       0.00027493       0.00000000
Si       2.71468289       2.71719643       0.02220091       0.00000000
