10
Lattice="16.28999089631971 0.0 0.0 0.0 16.28999089631971 0.0 0.0 0.0 34.36671206372826" Properties=species:S:1:pos:R:3:initial_magmoms:R:1 pbc="T T T"
Si       1.46867382      -1.18806554       1.34755390       0.00000000
Si      -1.34431596      -1.36406731      -1.34734770       0.00000000
Si      -1.21448466       1.33781136       1.49299391       0.00000000
Si       1.37101527       1.35545343      -1.34751953       0.00000000
Si       0.64744605       2.25500352       2.80741828       0.00000000
Si       2.35812411       0.65195349       2.77415128       0.00000000
Si      -2.69373069       2.70571524       0.04027781       0.00000000
Si      -2.70342324      -0.00410182      -2.70534909       0.00000000
Si       0.01198944       2.71086288      -2.70490232       0.00000000
Si       0.01161477      -2.71718407      -2.70528035       0.00000000
