10
Lattice="16.28999089631971 0.0 0.0 0.0 16.28999089631971 0.0 0.0 0.0 34.36671206372826" Properties=species:S:1:pos:R:3:initial_magmoms:R:1 pbc="T T T"
Si      -0.96115887       2.05706862      -0.68644109       0.00000000
Si      -1.87804152      -1.38831688       0.45683696       0.00000000
Si       1.95297552       0.37569627       1.42030827       0.00000000
Si       1.07975007      -1.16288283      -1.86766001       0.00000000
Si      -1.56141279      -0.48280139       2.63953680       0.00000000
Si       1.21166649       2.56223781       1.84710871       0.00000000
Si      -2.08684674       1.08106956      -2.52767308       0.00000000
Si       1.15686693       3.30067980      -0.36280958       0.00000000
Si       1.52779023      -3.13439867      -0.62822385       0.00000000
Si      -0.61336737       1.73395647       3.05327787       0.00000000
