10
Lattice="16.28999089631971 0.0 0.0 0.0 16.28999089631971 0.0 0.0 0.0 34.36671206372826" Properties=species:S:1:pos:R:3:initial_magmoms:R:1 pbc="T T T"
Si      -1.35632169      -1.35694071      -1.35731405       0.00000000
Si       1.35902583      -1.35540945       1.35738278       0.00000000
Si      -1.35547461       1.35883035       1.35813885       0.00000000
Si       1.35788553       1.35842310      -1.35769209       0.00000000
Si      -0.01198944      -2.71086288       2.70490232       0.00000000
Si       2.71484253      -2.71337154      -0.00037803       0.00000000
Si      -2.71430496       0.00164529      -2.71459374       0.00000000
Si       0.00063531      -2.71411925      -2.71507487       0.00000000
Si       2.71425609       2.71547784       0.00024057       0.00000000
Si      -0.00071676       2.71609686      -2.71390640       0.00000000
