10
Lattice="16.28999089631971 0.0 0.0 0.0 16.28999089631971 0.0 0.0 0.0 34.36671206372826" Properties=species:S:1:pos:R:3:initial_magmoms:R:1 pbc="T T T"
Si      -1.35426915      -1.34234487      -1.37284781       0.00000000
Si      -1.46528550       1.26881181       1.32834290       0.00000000
Si       1.36029645       1.37441988      -1.37460052       0.00000000
Si       1.43117424      -1.35927018       1.43786967       0.00000000
Si      -0.12654072       2.41204401       2.82040890       0.00000000
Si      -2.70451467      -2.70632286       0.01419346       0.00000000
Si       2.70223407       2.71443528      -0.00474261       0.00000000
Si       2.72605005      -2.70207117      -0.01350613       0.00000000
Si       0.00120546      -2.70117522      -2.73098667       0.00000000
Si      -2.71402803       0.01467729      -2.73122723       0.00000000
