10
Lattice="16.28999089631971 0.0 0.0 0.0 16.28999089631971 0.0 0.0 0.0 34.36671206372826" Properties=species:S:1:pos:R:3:initial_magmoms:R:1 pbc="T T T"
Si      -0.13113450      -2.34198072      -0.33005809       0.00000000
Si      -1.08199809       1.48410045       1.52083096       0.00000000
Si       1.71075951       0.57401073      -1.59234813       0.00000000
Si      -2.26303938       0.88844031      -1.53674276       0.00000000
Si       2.45299707      -0.13475088       2.15816199       0.00000000
Si       3.22367697      -0.85869477      -0.01797380       0.00000000
Si       0.58562550      -1.19848788       3.14235644       0.00000000
Si       2.47627548       2.52499887      -0.65905081       0.00000000
Si      -0.07633494      -3.08042271       1.87986020       0.00000000
Si       2.09657187      -3.03539715      -1.00526126       0.00000000
