10
Lattice="16.28999089631971 0.0 0.0 0.0 16.28999089631971 0.0 0.0 0.0 34.36671206372826" Properties=species:S:1:pos:R:3:initial_magmoms:R:1 pbc="T T T"
Si      -1.70544897       1.04702346       1.25500429       0.00000000
Si      -1.12568787      -0.97599906      -1.84123199       0.00000000
Si       0.96115887      -2.05706862       0.68644109       0.00000000
Si       2.11802580       1.24361118       0.32363151       0.00000000
Si       2.17282536       0.50516919       2.53354980       0.00000000
Si       0.64583334      -2.24529142      -2.87501764       0.00000000
Si      -0.91688265      -3.44538550       1.14327805       0.00000000
Si       0.34779150      -0.32311215       3.73971896       0.00000000
Si      -1.81455287       3.40050492       0.62757088       0.00000000
Si      -3.79595186      -0.19280844       1.02921487       0.00000000
