10
Lattice="16.28999089631971 0.0 0.0 0.0 16.28999089631971 0.0 0.0 0.0 34.36671206372826" Properties=species:S:1:pos:R:3:initial_magmoms:R:1 pbc="T T T"
Si       1.39189905      -1.18416897      -1.52059039       0.00000000
Si       1.92112857       0.87162903       1.13997884       0.00000000
Si      -1.43687574      -1.48656024       1.30456112       0.00000000
Si      -1.31629716       1.53743391      -1.48852623       0.00000000
Si       2.68118739      -2.66931198      -0.19578727       0.00000000
Si      -2.77562052      -2.62979244      -0.18750489       0.00000000
Si       0.04996143      -2.52418437      -2.89044830       0.00000000
Si      -0.69035391       2.48974731       2.88127238       0.00000000
Si       1.95356196       0.12412980       3.39381781       0.00000000
Si      -2.66351274       0.18842643      -2.89034520       0.00000000
