10
Lattice="16.28999089631971 0.0 0.0 0.0 16.28999089631971 0.0 0.0 0.0 34.36671206372826" Properties=species:S:1:pos:R:3:initial_magmoms:R:1 pbc="T T T"
Si      -0.95799861       1.70963550      -1.29352940       0.00000000
Si       2.31948423       0.42508755       0.21059933       0.00000000
Si      -0.03337821      -2.30793462      -0.60492320       0.00000000
Si      -1.56773331       0.30848373       1.78483619       0.00000000
Si      -3.04865721       0.60856182      -1.63795278       0.00000000
Si      -0.28395099      -3.19828086       1.67070427       0.00000000
Si      -0.44056305       2.03753691       2.96835768       0.00000000
Si       3.25296639      -0.94850154      -1.49883625       0.00000000
Si      -2.11001112      -1.87646139       2.43883508       0.00000000
Si       0.84717774       3.44303811       1.48539886       0.00000000
