10
Lattice="16.28999089631971 0.0 0.0 0.0 16.28999089631971 0.0 0.0 0.0 34.36671206372826" Properties=species:S:1:pos:R:3:initial_magmoms:R:1 pbc="T T T"
Si       1.35707103      -1.35725022      -1.35782955       0.00000000
Si       1.35690813       1.35858600       1.35672982       0.00000000
Si      -1.35716877      -1.35874890       1.35700475       0.00000000
Si      -1.35751086       1.35754344      -1.35851689       0.00000000
Si       0.00097740       2.71170277       2.71466247       0.00000000
Si       0.00289962      -2.71515204       2.71359710       0.00000000
Si       0.00006516      -2.71580364      -2.71308160       0.00000000
Si      -2.71313208      -0.00032580       2.71603714       0.00000000
Si      -2.71453302       2.71470787      -0.00027493       0.00000000
Si      -2.71440270      -2.71485882      -0.00037803       0.00000000
