10
Lattice="16.28999089631971 0.0 0.0 0.0 16.28999089631971 0.0 0.0 0.0 34.36671206372826" Properties=species:S:1:pos:R:3:initial_magmoms:R:1 pbc="T T T"
Si      -1.35593073       1.35311677       1.35793265       0.00000000
Si      -1.35690813      -1.35858600      -1.35672982       0.00000000
Si       1.35848826       1.35676292      -1.35707348       0.00000000
Si       1.35834165      -1.35878148       1.36549333       0.00000000
Si      -0.01161477       2.71718407       2.70528035       0.00000000
Si      -2.71503801       2.71308225      -0.00006873       0.00000000
Si       0.00100998       2.71392770      -2.71469684       0.00000000
Si      -2.71441899      -0.00104256      -2.71524670       0.00000000
Si       2.71521720       2.71467541       0.00000000       0.00000000
Si       0.00016290      -2.71583622      -2.71455937       0.00000000
