10
Lattice="16.28999089631971 0.0 0.0 0.0 16.28999089631971 0.0 0.0 0.0 34.36671206372826" Properties=species:S:1:pos:R:3:initial_magmoms:R:1 pbc="T T T"
Si      -1.34721558      -1.34900748      -1.40181897       0.00000000
Si       1.36513458       1.36594908      -1.39319292       0.00000000
Si      -1.46660499       1.31766552       1.49488408       0.00000000
Si       1.31629716      -1.53743391       1.48852623       0.00000000
Si       0.28209393       2.55692727       2.58372522       0.00000000
Si      -2.70285309      -2.69944848      -0.04594832       0.00000000
Si      -2.70089829       2.71101438      -0.03505407       0.00000000
Si       2.70819621      -2.72160288      -0.03206416       0.00000000
Si       2.73688290       2.72319930      -0.01185652       0.00000000
Si      -2.70728397       0.00739566      -2.75841132       0.00000000
