10
Lattice="16.28999089631971 0.0 0.0 0.0 16.28999089631971 0.0 0.0 0.0 34.36671206372826" Properties=species:S:1:pos:R:3:initial_magmoms:R:1 pbc="T T T"
Si       0.69791247       1.82509902       1.20697885       0.00000000
Si      -1.96109608      -0.79604669       0.97346035       0.00000000
Si       0.07535754       0.77607189      -2.20613386       0.00000000
Si      -0.83579103      -1.62391426      -2.44683845       0.00000000
Si       2.09968326       0.47368062       2.43324912       0.00000000
Si       2.98554975      -0.61550625      -1.13701922       0.00000000
Si      -2.81783931      -1.14158365      -1.26287019       0.00000000
Si      -0.65806713      -2.22470525       2.42155068       0.00000000
Si       2.30218425       1.81431504      -1.70953460       0.00000000
Si       0.71426763      -3.50963882       1.04819424       0.00000000
