10
Lattice="16.28999089631971 0.0 0.0 0.0 16.28999089631971 0.0 0.0 0.0 34.36671206372826" Properties=species:S:1:pos:R:3:initial_magmoms:R:1 pbc="T T T"
Si       1.14072354       1.85668533       0.87349921       0.00000000
Si      -2.15984549       0.87584814      -0.50570645       0.00000000
Si       1.42503291      -0.53256897      -1.84037283       0.00000000
Si      -0.83429235      -1.72691919       1.48278699       0.00000000
Si       0.61092387       1.51161426       3.10544657       0.00000000
Si       2.41393365      -2.45086308      -0.95518893       0.00000000
Si      -2.81159047      -0.70358139       2.41484711       0.00000000
Si      -0.23853447       3.75034896       0.58220679       0.00000000
Si      -2.87079973       0.02875185      -2.55623184       0.00000000
Si      -2.01884251       3.18109491      -0.84188182       0.00000000
