10
Lattice="16.28999089631971 0.0 0.0 0.0 16.28999089631971 0.0 0.0 0.0 34.36671206372826" Properties=species:S:1:pos:R:3:initial_magmoms:R:1 pbc="T T T"
Si       1.69264503      -0.26168256       1.61025319       0.00000000
Si      -2.19861243      -0.28017171       0.90405123       0.00000000
Si       0.72381357      -1.95294620      -1.23692739       0.00000000
Si       0.48177675       1.88284707      -1.47388600       0.00000000
Si       2.09647413      -0.65687796      -2.85927767       0.00000000
Si      -3.48485454      -0.68626512      -1.10234727       0.00000000
Si       2.69576694       2.44165923      -0.81050499       0.00000000
Si       3.53664045      -1.20923928       0.44120010       0.00000000
Si      -0.95257404      -3.56438951      -1.20747510       0.00000000
Si      -2.26137780      -2.16849548       2.31154071       0.00000000
