10
Lattice="16.28999089631971 0.0 0.0 0.0 16.28999089631971 0.0 0.0 0.0 34.36671206372826" Properties=species:S:1:pos:R:3:initial_magmoms:R:1 pbc="T T T"
Si      -2.17416114      -0.34292079       0.90656000       0.00000000
Si       0.40290057      -2.22225867      -0.79586476       0.00000000
Si       1.28624211       0.40609341       2.00639850       0.00000000
Si      -0.74256336       1.88864631      -1.55176102       0.00000000
Si      -0.73089972      -1.86293092      -2.82401741       0.00000000
Si      -2.91547017       1.84362075       1.33336044       0.00000000
Si       3.48485454       0.68626512       1.10234727       0.00000000
Si      -0.94050315      -3.61780442       0.60427024       0.00000000
Si       2.53228050      -2.87812439      -0.10512783       0.00000000
Si      -2.14004988      -2.35545974       2.20785628       0.00000000
