10
Lattice="16.28999089631971 0.0 0.0 0.0 16.28999089631971 0.0 0.0 0.0 34.36671206372826" Properties=species:S:1:pos:R:3:initial_magmoms:R:1 pbc="T T T"
Si       0.35497539       0.68087313       2.24167315       0.00000000
Si       1.20619305      -2.05327305      -0.06845853       0.00000000
Si      -2.37589650      -0.55703655      -0.26139336       0.00000000
Si       0.49257702       2.29625469      -1.53811742       0.00000000
Si      -3.14657640       0.16690734       1.91474243       0.00000000
Si      -1.40310657      -0.44492877       3.39567362       0.00000000
Si      -0.67727304       2.82357828       2.33710956       0.00000000
Si       3.42018324      -1.49446089       0.59492249       0.00000000
Si       1.82482209      -2.62536156      -2.23995481       0.00000000
Si      -1.36585134      -0.47296386      -3.64957503       0.00000000
