10
Lattice="16.28999089631971 0.0 0.0 0.0 16.28999089631971 0.0 0.0 0.0 34.36671206372826" Properties=species:S:1:pos:R:3:initial_magmoms:R:1 pbc="T T T"
Si      -0.87431688      -0.11933402      -2.16293897       0.00000000
Si      -1.98204828       0.48233061       1.18396826       0.00000000
Si       1.14054435      -2.04324885       0.50560335       0.00000000
Si       0.91114857       2.39998615       0.24070459       0.00000000
Si       0.83579103       1.62391426       2.44683845       0.00000000
Si       2.28587796       1.69870165      -1.49261587       0.00000000
Si       1.13871987       0.48119357      -3.20081425       0.00000000
Si      -2.50327730      -1.75450860       1.59987444       0.00000000
Si      -2.75643809       2.27023630      -0.33201699       0.00000000
Si      -0.36167058      -2.77955685       2.25108795       0.00000000
