10
Lattice="16.28999089631971 0.0 0.0 0.0 16.28999089631971 0.0 0.0 0.0 34.36671206372826" Properties=species:S:1:pos:R:3:initial_magmoms:R:1 pbc="T T T"
Si       0.03243339      -0.74749923       2.25383897       0.00000000
Si      -1.92112857      -0.87162903      -1.13997884       0.00000000
Si       0.88721856       1.97552088      -1.04670753       0.00000000
Si       1.77157008      -1.84715568      -0.04199615       0.00000000
Si      -0.44333235       1.36705680       2.95388929       0.00000000
Si      -0.52922952      -2.05579800      -2.66056923       0.00000000
Si       2.20351572       0.67865769      -2.64232050       0.00000000
Si      -2.61148248       1.61811828       1.74129354       0.00000000
Si       1.76396265      -2.34693288       2.33112975       0.00000000
Si       3.65674662      -0.55309437      -1.10540591       0.00000000
