10
Lattice="16.28999089631971 0.0 0.0 0.0 16.28999089631971 0.0 0.0 0.0 34.36671206372826" Properties=species:S:1:pos:R:3:initial_magmoms:R:1 pbc="T T T"
Si       0.86832216       2.03895414      -0.64661005       0.00000000
Si       1.48739103      -1.48019085      -1.10568085       0.00000000
Si       0.28698093      -0.35987868       2.38986249       0.00000000
Si      -2.04719688      -0.26990901      -1.29806581       0.00000000
Si      -0.94957668       3.45983310       0.00714828       0.00000000
Si      -0.84949092      -2.40510447       2.58606216       0.00000000
Si      -1.11640257      -3.54631671       0.54722146       0.00000000
Si       1.36104579       1.90350279      -2.94488520       0.00000000
Si      -2.82281265      -2.42735661      -0.69681984       0.00000000
Si       1.02555324      -3.67839603      -0.42154233       0.00000000
