10
Lattice="16.28999089631971 0.0 0.0 0.0 16.28999089631971 0.0 0.0 0.0 34.36671206372826" Properties=species:S:1:pos:R:3:initial_magmoms:R:1 pbc="T T T"
Si       1.24626645       1.06336233      -1.62499652       0.00000000
Si       0.19940589      -2.36555235      -0.01738957       0.00000000
Si      -2.29902399       0.38783232      -0.51446997       0.00000000
Si       1.19938383       0.83473218       1.89443169       0.00000000
Si      -1.88801100      -2.92315905       0.94154534       0.00000000
Si       1.17542124      -0.36746982      -3.40862987       0.00000000
Si      -3.43549584      -1.65739347      -0.31827030       0.00000000
Si       3.46634910       1.40836824      -0.93157898       0.00000000
Si      -3.23250615       1.76142141       1.19496561       0.00000000
Si       0.02599884       2.56455099       2.94760017       0.00000000
