10
Lattice="16.28999089631971 0.0 0.0 0.0 16.28999089631971 0.0 0.0 0.0 34.36671206372826" Properties=species:S:1:pos:R:3:initial_magmoms:R:1 pbc="T T T"
Si      -0.86832216      -2.03895414       0.64661005       0.00000000
Si       0.49272363      -0.13545135      -2.29827515       0.00000000
Si      -1.81789884       1.42087896       0.65375833       0.00000000
Si       2.19647844       0.27249912       0.95883180       0.00000000
Si       1.11351924       2.05568397      -2.65627339       0.00000000
Si       0.61906887      -3.51914499      -0.45907080       0.00000000
Si      -2.91551904      -2.30886315      -0.65145576       0.00000000
Si      -0.58134123      -2.39883282       3.03647254       0.00000000
Si      -1.33894026       2.57684994       2.64513857       0.00000000
Si       2.96394921      -1.72330281       1.92594599       0.00000000
