10
Lattice="16.28999089631971 0.0 0.0 0.0 16.28999089631971 0.0 0.0 0.0 34.36671206372826" Properties=species:S:1:pos:R:3:initial_magmoms:R:1 pbc="T T T"
Si      -1.35479043      -1.35579303       1.35710785       0.00000000
Si       1.35757602       1.35724687       1.35573318       0.00000000
Si      -1.35790182       1.35658550      -1.35724532       0.00000000
Si       1.35751086      -1.35756864      -1.35762335       0.00000000
Si      -0.00237834      -2.71393920       2.71304723       0.00000000
Si       2.71221953       0.00030060       2.71579657       0.00000000
Si      -2.71482624      -2.71462338       0.00044677       0.00000000
Si       0.00130320      -2.71504692      -2.71479994       0.00000000
Si       2.71486664      -2.71506321      -0.00017183       0.00000000
Si       2.71515905       2.71526435      -0.00037803       0.00000000
