10
Lattice="16.28999089631971 0.0 0.0 0.0 16.28999089631971 0.0 0.0 0.0 34.36671206372826" Properties=species:S:1:pos:R:3:initial_magmoms:R:1 pbc="T T T"
Si      -1.35695700       1.35993807      -1.35525205       0.00000000
Si      -1.35599589      -1.35890691       1.35923859       0.00000000
Si       1.35879777       1.35788553       1.35879182       0.00000000
Si       1.36168110      -1.36089592      -1.36054452       0.00000000
Si      -0.01397682       2.71301805      -2.70904007       0.00000000
Si      -2.71363707       2.71274112       0.00127157       0.00000000
Si      -2.71327869      -0.00013032       2.71600277       0.00000000
Si       2.71617607       2.71435383       0.00223384       0.00000000
Si       0.00158013       2.71451673       2.71610587       0.00000000
Si      -2.71658556      -2.71413320       0.00329921       0.00000000
