10
Lattice="16.28999089631971 0.0 0.0 0.0 16.28999089631971 0.0 0.0 0.0 34.36671206372826" Properties=species:S:1:pos:R:3:initial_magmoms:R:1 pbc="T T T"
Si      -1.20454776       1.34944417      -1.61451467       0.00000000
Si       1.51415550       1.43044946       1.34885984       0.00000000
Si      -0.75118077      -1.92379905       1.38721311       0.00000000
Si       1.48123341      -1.32514155      -1.62468722       0.00000000
Si      -2.47896333       2.73827582      -0.20561615       0.00000000
Si      -2.51737515      -2.77252434      -0.00958832       0.00000000
Si       2.79557577      -2.58367437      -0.18939506       0.00000000
Si       2.81302236       2.64351689      -0.26905714       0.00000000
Si      -2.56158621      -0.00470642      -2.98959632       0.00000000
Si       1.26283338      -3.52347705       1.40412154       0.00000000
