10
Lattice="16.28999089631971 0.0 0.0 0.0 16.28999089631971 0.0 0.0 0.0 34.36671206372826" Properties=species:S:1:pos:R:3:initial_magmoms:R:1 pbc="T T T"
Si       0.85933008      -2.11858489       0.67929281       0.00000000
Si      -2.28372768       0.30948263       0.62904865       0.00000000
Si      -0.12233790      -0.49416238      -2.34470461       0.00000000
Si       1.63919754       1.70207889       0.51302656       0.00000000
Si       3.09720534      -1.72969372       0.08392356       0.00000000
Si      -2.32876953      -1.34208946      -2.43306147       0.00000000
Si       3.56564384       0.38163756       0.85500991       0.00000000
Si      -3.30983478      -1.62809299      -0.28015759       0.00000000
Si       0.63358326      -2.44625824       2.96189673       0.00000000
Si      -3.40011396       1.81172688      -0.78452374       0.00000000
