10
Lattice="16.28999089631971 0.0 0.0 0.0 16.28999089631971 0.0 0.0 0.0 34.36671206372826" Properties=species:S:1:pos:R:3:initial_magmoms:R:1 pbc="T T T"
Si       1.35798002      -1.35449721       1.35294948       0.00000000
Si      -1.35752715      -1.35620766      -1.35793265       0.00000000
Si       1.35762784       1.35889551      -1.35803575       0.00000000
Si      -1.36171368       1.36379880       1.35813885       0.00000000
Si      -2.69878059       0.00746082       2.70191241       0.00000000
Si       2.69372973       0.00801468       2.71191313       0.00000000
Si       2.71354326      -2.71313208      -0.00085917       0.00000000
Si      -0.00030951      -2.71283886      -2.71524670       0.00000000
Si      -2.71450044       0.00073305      -2.71473120       0.00000000
Si      -2.71516833       2.71458189      -0.00216510       0.00000000
