10
Lattice="16.28999089631971 0.0 0.0 0.0 16.28999089631971 0.0 0.0 0.0 34.36671206372826" Properties=species:S:1:pos:R:3:initial_magmoms:R:1 pbc="T T T"
Si      -1.45437120       0.37900314      -1.76889003       0.00000000
Si      -0.61862904       0.57208851       2.17149628       0.00000000
Si       0.99606834      -1.96763652       0.78610461       0.00000000
Si       2.22715251       1.78761573      -1.18620210       0.00000000
Si       0.47016198       1.21575528      -2.91553601       0.00000000
Si       1.59536115       1.13090067       2.83487730       0.00000000
Si       1.82254149      -2.84294709      -1.31755174       0.00000000
Si       2.82048318      -0.85138056       2.37206053       0.00000000
Si      -1.82482209       2.62536156       2.23995481       0.00000000
Si      -2.17057734      -1.53512073      -2.87202773       0.00000000
