10
Lattice="16.28999089631971 0.0 0.0 0.0 16.28999089631971 0.0 0.0 0.0 34.36671206372826" Properties=species:S:1:pos:R:3:initial_magmoms:R:1 pbc="T T T"
Si       2.30170925      -0.13724325       0.52258052       0.00000000
Si      -0.90481176      -1.74827538       1.38704127       0.00000000
Si      -0.08992080       2.25733788       1.03234224       0.00000000
Si      -0.27302040      -1.09156032      -2.63403812       0.00000000
Si      -0.17171289      -0.96207111       3.49674617       0.00000000
Si       2.41081316      -2.49072471       1.15001393       0.00000000
Si      -2.05493463       3.19005441       0.24558466       0.00000000
Si       0.32031027      -3.73055661       0.92422450       0.00000000
Si       2.92645682       1.71033597       1.95522644       0.00000000
Si      -3.11880195      -2.30708754       0.72366026       0.00000000
