10
Lattice="16.28999089631971 0.0 0.0 0.0 16.28999089631971 0.0 0.0 0.0 34.36671206372826" Properties=species:S:1:pos:R:3:initial_magmoms:R:1 pbc="T T T"
Si      -0.99691542      -1.74589704      -1.14396538       0.00000000
Si       2.24535888      -0.65845809       0.05261547       0.00000000
Si       0.73930536       1.74364902      -1.45501867       0.00000000
Si      -0.48879774      -0.73050876       2.23528094       0.00000000
Si       2.95631313       0.18863820       2.10314085       0.00000000
Si      -0.85069638       3.38261850      -1.01880175       0.00000000
Si       0.84708000      -2.69345376      -2.31301848       0.00000000
Si       0.00620649       0.95744475      -3.56472357       0.00000000
Si      -1.57319046      -3.35746348       0.48226834       0.00000000
Si       1.15743708       0.08695602       3.63620637       0.00000000
