10
Lattice="16.28999089631971 0.0 0.0 0.0 16.28999089631971 0.0 0.0 0.0 34.36671206372826" Properties=species:S:1:pos:R:3:initial_magmoms:R:1 pbc="T T T"
Si      -1.74140100      -1.16439291      -0.99388587       0.00000000
Si       0.76159008      -0.26305092       2.24199245       0.00000000
Si      -0.25933680       2.30412276      -0.71420941       0.00000000
Si       1.24654338       0.72803268      -1.98419760       0.00000000
Si       1.78891893      -1.68570549      -0.05020979       0.00000000
Si      -0.46806057      -2.53500093      -2.48127800       0.00000000
Si      -2.78089848       2.26968570      -0.56653556       0.00000000
Si      -1.08545157      -1.28796885       3.25479893       0.00000000
Si       0.35631117      -0.67337973      -3.67761828       0.00000000
Si       3.54908505      -0.16702137      -1.24276974       0.00000000
