10
Lattice="16.28999089631971 0.0 0.0 0.0 16.28999089631971 0.0 0.0 0.0 34.36671206372826" Properties=species:S:1:pos:R:3:initial_magmoms:R:1 pbc="T T T"
Si       0.75443877      -0.32369859       2.21129712       0.00000000
Si      -1.01556747      -2.20423248      -0.19080409       0.00000000
Si      -1.78891893       1.68570549       0.05020979       0.00000000
Si       1.76016612       1.51868412      -1.19255994       0.00000000
Si      -1.02732885       1.42265457       2.29220225       0.00000000
Si      -0.54237555       2.41373817      -1.93398780       0.00000000
Si      -2.25697950      -0.84929544      -2.43106820       0.00000000
Si       1.10152980      -3.35642418      -0.47587613       0.00000000
Si      -3.53031993       0.52131258      -0.94367607       0.00000000
Si       3.12245810      -1.82218311      -0.82871936       0.00000000
