10
Lattice="16.28999089631971 0.0 0.0 0.0 16.28999089631971 0.0 0.0 0.0 34.36671206372826" Properties=species:S:1:pos:R:3:initial_magmoms:R:1 pbc="T T T"
Si       1.35345465      -1.35078309       1.36030396       0.00000000
Si      -1.35780408      -1.35516510      -1.35600812       0.00000000
Si       1.35741312       1.35998694      -1.35569882       0.00000000
Si      -1.35560493       1.36102950       1.36576827       0.00000000
Si       0.01638774      -2.70712107       2.70407752       0.00000000
Si       0.00066789      -2.71384884      -2.71256610       0.00000000
Si      -2.71492398       0.00169416      -2.71318470       0.00000000
Si       2.71524978       0.00206883      -2.71315033       0.00000000
Si      -2.71586880      -2.71365336       0.00216510       0.00000000
Si       2.71370223       2.71586880       0.00192454       0.00000000
