10
Lattice="16.28999089631971 0.0 0.0 0.0 16.28999089631971 0.0 0.0 0.0 34.36671206372826" Properties=species:S:1:pos:R:3:initial_magmoms:R:1 pbc="T T T"
Si      -1.35707103      -1.35268902      -1.39460195       0.00000000
Si       1.36447969       1.35856971      -1.39305545       0.00000000
Si       1.12801734      -1.62245142       1.43309269       0.00000000
Si      -1.25364582       1.48727700       1.52842601       0.00000000
Si      -2.69413794      -2.70902700      -0.05082840       0.00000000
Si       2.69837238      -2.70847314      -0.04082768       0.00000000
Si       2.70062529       2.71580364      -0.01388416       0.00000000
Si      -2.70687672       2.71902906      -0.00848858       0.00000000
Si      -2.71052568      -0.00190593      -2.75490591       0.00000000
Si       0.00317655       2.71396287      -2.75298138       0.00000000
