10
Lattice="16.28999089631971 0.0 0.0 0.0 16.28999089631971 0.0 0.0 0.0 34.36671206372826" Properties=species:S:1:pos:R:3:initial_magmoms:R:1 pbc="T T T"
Si      -1.35628911      -1.35588186      -1.35762335       0.00000000
Si      -1.35811359       1.35938421       1.35573318       0.00000000
Si       1.35913139       1.35826020      -1.35748589       0.00000000
Si       1.36130314      -1.35539316       1.35992592       0.00000000
Si      -2.71052568       2.71753038      -0.00020620       0.00000000
Si      -2.71322982       0.00135207      -2.71507487       0.00000000
Si       0.00154755      -2.71379997      -2.71507487       0.00000000
Si      -2.71370223      -2.71586880      -0.00192454       0.00000000
Si       0.00177561       2.71575477      -2.71493740       0.00000000
Si       2.71676542      -2.71414206      -0.00054987       0.00000000
