10
Lattice="16.28999089631971 0.0 0.0 0.0 16.28999089631971 0.0 0.0 0.0 34.36671206372826" Properties=species:S:1:pos:R:3:initial_magmoms:R:1 pbc="T T T"
Si       0.31892562      -2.18753523      -0.84593709       0.00000000
Si      -1.23862644      -0.84367539       1.87071865       0.00000000
Si       2.05315902       1.24229169       0.25812852       0.00000000
Si      -1.45883466       1.40089113      -1.49574325       0.00000000
Si       0.54626886      -1.11679353       3.38165199       0.00000000
Si       3.18769645      -0.39817647       1.64716306       0.00000000
Si       3.21244569       0.13069467      -1.82236466       0.00000000
Si       1.22603427       3.48047253       0.97000099       0.00000000
Si      -2.17929249       3.15807714      -0.10145059       0.00000000
Si       2.28393945      -3.12025176      -0.05917951       0.00000000
