10
Lattice="16.28999089631971 0.0 0.0 0.0 16.28999089631971 0.0 0.0 0.0 34.36671206372826" Properties=species:S:1:pos:R:3:initial_magmoms:R:1 pbc="T T T"
Si      -0.29968713      -0.22880934       2.29006150       0.00000000
Si      -2.20501440      -0.64922166      -0.58141636       0.00000000
Si       0.66630077       2.25188140       0.37366947       0.00000000
Si       1.50844490      -1.52521641      -1.08760394       0.00000000
Si      -2.83682205       1.17118584      -1.87494576       0.00000000
Si       1.85027914       0.07385886       3.11898706       0.00000000
Si      -1.31263191       3.23758441       1.31999178       0.00000000
Si       2.60283968       1.99843034       1.83635192       0.00000000
Si      -1.00590750      -2.40603300       2.74847933       0.00000000
Si      -1.74646719       1.56359565       3.01458093       0.00000000
