10
Lattice="16.28999089631971 0.0 0.0 0.0 16.28999089631971 0.0 0.0 0.0 34.36671206372826" Properties=species:S:1:pos:R:3:initial_magmoms:R:1 pbc="T T T"
Si       0.63180765      -1.82040750       1.29352940       0.00000000
Si      -2.23959807      -0.14323797      -0.65221183       0.00000000
Si      -0.03723894       1.86370047       1.45099776       0.00000000
Si       1.29914379       0.49495536      -1.92151268       0.00000000
Si       0.53903610       3.47526692      -0.17523596       0.00000000
Si      -0.42979536       1.78400328      -3.02241655       0.00000000
Si       2.83682205      -1.17118584       1.87494576       0.00000000
Si      -2.10618297       0.17255997      -2.99296426       0.00000000
Si      -2.86039368      -2.33437329      -0.29421359       0.00000000
Si      -1.15663887      -1.92642282       2.96289337       0.00000000
