10
Lattice="16.28999089631971 0.0 0.0 0.0 16.28999089631971 0.0 0.0 0.0 34.36671206372826" Properties=species:S:1:pos:R:3:initial_magmoms:R:1 pbc="T T T"
Si      -0.14100298      -2.30524677       0.33617537       0.00000000
Si       0.91605838       0.14134833      -2.15884932       0.00000000
Si       1.78030804       0.56925405       1.42408861       0.00000000
Si      -1.99435279       1.13676507       0.76342257       0.00000000
Si      -0.28883636       2.15572086      -2.62001649       0.00000000
Si      -2.41005730      -0.21418092       2.66703018       0.00000000
Si      -1.93987903      -2.40692895       1.86924088       0.00000000
Si      -0.85195723      -3.15234306      -1.71435002       0.00000000
Si      -1.20336185       3.34762758       1.22139363       0.00000000
Si       0.52625497      -2.01119598      -3.21349557       0.00000000
