10
Lattice="16.28999089631971 0.0 0.0 0.0 16.28999089631971 0.0 0.0 0.0 34.36671206372826" Properties=species:S:1:pos:R:3:initial_magmoms:R:1 pbc="T T T"
Si      -1.33700568      -1.35531171      -1.36415990       0.00000000
Si       1.35617834      -1.35529542       1.35916985       0.00000000
Si      -1.35980544       1.35654975       1.35889492       0.00000000
Si       1.35445160       1.34759025      -1.39940642       0.00000000
Si      -2.57170623       0.01342296      -2.83322082       0.00000000
Si      -0.00066300      -2.71350675       2.71634644       0.00000000
Si       2.71875539      -2.71173114       0.00061860       0.00000000
Si      -2.71709448      -2.71362078      -0.00281807       0.00000000
Si       2.71453628       0.00131949       2.71644954       0.00000000
Si      -2.71574241       0.00156384       2.71610587       0.00000000
