10
Lattice="16.28999089631971 0.0 0.0 0.0 16.28999089631971 0.0 0.0 0.0 34.36671206372826" Properties=species:S:1:pos:R:3:initial_magmoms:R:1 pbc="T T T"
Si       1.35558556       1.35782037       1.35707348       0.00000000
Si      -1.35758303      -1.35801748       1.35611122       0.00000000
Si       1.35733673      -1.35825368      -1.35765772       0.00000000
Si      -1.35826721       1.35811359      -1.35731405       0.00000000
Si       0.00002232       2.71645524       2.71088213       0.00000000
Si      -2.71258523       0.00276930       2.71565910       0.00000000
Si      -0.00088891       2.71458189      -2.71387203       0.00000000
Si       2.71433771       2.71467963      -0.00034367       0.00000000
Si       2.71490786       0.00130320      -2.71514360       0.00000000
Si      -2.71548485       2.71474479       0.00000000       0.00000000
