10
Lattice="16.28999089631971 0.0 0.0 0.0 16.28999089631971 0.0 0.0 0.0 34.36671206372826" Properties=species:S:1:pos:R:3:initial_magmoms:R:1 pbc="T T T"
Si       0.87309839       1.93725567      -1.07560617       0.00000000
Si      -1.10900039      -1.46846205      -1.55962554       0.00000000
Si      -1.30734159       1.37430585       1.53196578       0.00000000
Si       1.41801518      -1.33864704       1.51027350       0.00000000
Si      -1.26850833       2.96230392      -1.72681969       0.00000000
Si      -2.50814265      -2.67281433       0.07645910       0.00000000
Si      -2.78973159       2.57290776       0.07394690       0.00000000
Si      -2.65203222       0.03399723       2.91047036       0.00000000
Si       0.06356358      -2.68623729       2.90967992       0.00000000
Si       2.78482763       2.83108797       0.16833856       0.00000000
