10
Lattice="16.28999089631971 0.0 0.0 0.0 16.28999089631971 0.0 0.0 0.0 34.36671206372826" Properties=species:S:1:pos:R:3:initial_magmoms:R:1 pbc="T T T"
Si       1.35723393       1.35610992       1.35738278       0.00000000
Si       1.35734796      -1.35754344      -1.35724532       0.00000000
Si      -1.35771286      -1.35764118       1.35693602       0.00000000
Si      -1.35870166       1.35796698      -1.35786392       0.00000000
Si       2.71446786      -0.00094482      -2.71270357       0.00000000
Si      -0.00138465       2.71278999      -2.71449064       0.00000000
Si       2.71428867      -2.71428867      -0.00048113       0.00000000
Si      -0.00100998      -2.71415835      -2.71452500       0.00000000
Si       2.71440270       2.71485882       0.00037803       0.00000000
Si      -2.71534688       2.71476108       0.00000000       0.00000000
