10
Lattice="16.28999089631971 0.0 0.0 0.0 16.28999089631971 0.0 0.0 0.0 34.36671206372826" Properties=species:S:1:pos:R:3:initial_magmoms:R:1 pbc="T T T"
Si       1.35771286       1.35764118      -1.35693602       0.00000000
Si      -1.35767148      -1.35741312      -1.35724532       0.00000000
Si       1.35715900      -1.35669636       1.35954789       0.00000000
Si      -1.35546228       1.35874890       1.36047579       0.00000000
Si      -0.02156959      -2.70829395       2.71270357       0.00000000
Si       2.71494679       2.71375110       0.00044677       0.00000000
Si      -0.00013847      -2.71472850      -2.71428444       0.00000000
Si       2.71416487      -2.71500543       0.00030930       0.00000000
Si       2.71506082       0.00009774      -2.71418134       0.00000000
Si      -2.71521787       0.00034209      -2.71452500       0.00000000
