10
Lattice="16.28999089631971 0.0 0.0 0.0 16.28999089631971 0.0 0.0 0.0 34.36671206372826" Properties=species:S:1:pos:R:3:initial_magmoms:R:1 pbc="T T T"
Si       1.33614560       1.35723393       1.37917129       0.00000000
Si       1.35546228      -1.35874890      -1.36047579       0.00000000
Si      -1.36130314       1.35539316      -1.35992592       0.00000000
Si      -1.36447969      -1.35856971       1.39305545       0.00000000
Si       2.61597270      -0.11126070       2.74696720       0.00000000
Si       2.71444575       2.71342530      -0.00099664       0.00000000
Si       2.71262127      -2.71544526      -0.00092790       0.00000000
Si       2.71317513      -0.00110772      -2.71741181       0.00000000
Si      -0.00217175       2.71365336      -2.71741181       0.00000000
Si      -2.72155072      -2.71125873      -0.00154650       0.00000000
