10
Lattice="16.28999089631971 0.0 0.0 0.0 16.28999089631971 0.0 0.0 0.0 34.36671206372826" Properties=species:S:1:pos:R:3:initial_magmoms:R:1 pbc="T T T"
Si      -1.92641372      -0.92633085      -1.01003823       0.00000000
Si       0.92602134       1.94342958      -1.08921918       0.00000000
Si       1.79844858      -1.69015266       0.00072170       0.00000000
Si       1.73394018      -0.71659710       2.27978585       0.00000000
Si      -0.35605867      -2.01235257      -2.48395860       0.00000000
Si       2.38488858       0.70284834      -2.48375240       0.00000000
Si       3.01698945       1.46258136       1.49749595       0.00000000
Si       0.82085310      -3.48904107      -1.13733260       0.00000000
Si      -2.64146327      -2.74444146       0.63379126       0.00000000
Si       3.62841831      -0.76492953      -1.13678274       0.00000000
