10
Lattice="16.28999089631971 0.0 0.0 0.0 16.28999089631971 0.0 0.0 0.0 34.36671206372826" Properties=species:S:1:pos:R:3:initial_magmoms:R:1 pbc="T T T"
Si       1.02899532      -0.23354973      -2.14348740       0.00000000
Si       1.20489474      -2.01437253       0.46116717       0.00000000
Si       0.30437865       1.62755019       1.78298038       0.00000000
Si      -2.25061241       0.65676393      -0.70379629       0.00000000
Si       0.28883636      -2.15572086       2.62001649       0.00000000
Si      -1.08362530       3.03552747      -1.36002902       0.00000000
Si       0.10338774       1.75050711      -3.07228268       0.00000000
Si      -2.06917439      -2.90595681      -0.60196766       0.00000000
Si      -1.98738230       0.31345218      -3.06637160       0.00000000
Si       0.00083568       3.72281886       0.67166340       0.00000000
