10
Lattice="16.28999089631971 0.0 0.0 0.0 16.28999089631971 0.0 0.0 0.0 34.36671206372826" Properties=species:S:1:pos:R:3:initial_magmoms:R:1 pbc="T T T"
Si      -1.90369242       0.99481401      -1.06643404       0.00000000
Si       1.10900039       1.46846205       1.55962554       0.00000000
Si      -1.39914225      -1.20435228       1.63608464       0.00000000
Si       1.25677513      -0.81243117      -2.18998558       0.00000000
Si      -3.04905861       2.48160231       0.47698862       0.00000000
Si       1.98209878       3.40571772       0.48401936       0.00000000
Si       2.52701557       0.12981501       3.06989904       0.00000000
Si      -1.46260809       3.23804475      -1.82312073       0.00000000
Si      -2.54152737      -3.05540127       0.66899280       0.00000000
Si      -0.16444170      -2.57308695       3.10514556       0.00000000
