10
Lattice="16.28999089631971 0.0 0.0 0.0 16.28999089631971 0.0 0.0 0.0 34.36671206372826" Properties=species:S:1:pos:R:3:initial_magmoms:R:1 pbc="T T T"
Si       1.32737436      -1.34886087      -1.35947916       0.00000000
Si      -1.40652421      -1.21104747       1.44560218       0.00000000
Si      -1.38496277       1.37055819      -1.35975409       0.00000000
Si       1.33418358       1.39189809       1.40120037       0.00000000
Si      -2.01965863       0.70604348       2.77944376       0.00000000
Si      -0.43733763       2.66119046       2.43498601       0.00000000
Si       2.56166766      -2.74220973       0.17045899       0.00000000
Si      -2.82412304      -2.56130928       0.07756571       0.00000000
Si       2.67913485       0.01797208      -2.72517869       0.00000000
Si      -0.03497463      -2.69405649      -2.72380402       0.00000000
