10
Lattice="10.86 0.0 0.0 0.0 10.86 0.0 0.0 0.0 10.86" Properties=species:S:1:pos:R:3:initial_magmoms:R:1 pbc="T T T"
Si       1.41970608       1.29529392      -1.31673156       0.00000000
Si      -1.29529392      -1.41970608      -1.31673156       0.00000000
Si      -1.34896404       1.34896404       1.49862570       0.00000000
Si       1.41970608      -1.41970608       1.39826844       0.00000000
Si      -2.52830574       2.52830574       0.00942648       0.00000000
Si       0.06220608       2.65279392      -2.67423156       0.00000000
Si      -2.65279392      -0.06220608      -2.67423156       0.00000000
Si       2.77720608       2.65279392       0.04076844       0.00000000
Si      -2.65279392      -2.77720608       0.04076844       0.00000000
Si       2.77720608      -0.06220608      -2.67423156       0.00000000
