10
Lattice="16.290000149 0.0 0.0 0.0 16.290000149 0.0 0.0 0.0 29.1751946751" Properties=species:S:1:pos:R:3:initial_magmoms:R:1 pbc="T T T"
Si      -1.33406956      -1.36480228       1.36913354       0.00000000
Si       1.34845363      -1.35023087      -1.37415167       0.00000000
Si       1.35920503       1.34573320       1.36919189       0.00000000
Si      -1.36982611       1.34351776      -1.36472808       0.00000000
Si      -2.69218316      -2.70655094      -0.01391657       0.00000000
Si       2.71191035       2.69236235      -0.00708957       0.00000000
Si      -0.01308087       2.73093707       2.68017926       0.00000000
Si       2.72056034      -2.69808014      -0.03667322       0.00000000
Si      -2.76206727      -0.00487071       2.66658362       0.00000000
Si      -0.02062314       2.70889670      -2.72134546       0.00000000
