10
Lattice="16.290000149 0.0 0.0 0.0 16.290000149 0.0 0.0 0.0 29.1751946751" Properties=species:S:1:pos:R:3:initial_magmoms:R:1 pbc="T T T"
Si       1.61062489      -0.17721891      -1.67844895       0.00000000
Si      -0.43103340       2.29056136      -0.30563934       0.00000000
Si       0.25164792      -0.51227163       2.29726825       0.00000000
Si      -1.89692165      -1.30010491      -0.63365605       0.00000000
H        1.33216363      -2.22601223       1.50794911       0.00000000
H       -2.78003514      -0.45054882      -1.52492908       0.00000000
Si      -1.49393962       1.03104298       2.74682124       0.00000000
Si       0.04781115      -0.95511529      -3.27380694       0.00000000
Si      -2.32718942       2.27522595       1.03262684       0.00000000
Si      -0.86664430      -2.78910867      -2.10332731       0.00000000
