10
Lattice="16.290000149 0.0 0.0 0.0 16.290000149 0.0 0.0 0.0 29.1751946751" Properties=species:S:1:pos:R:3:initial_magmoms:R:1 pbc="T T T"
Si       1.36849033       1.34863282       1.33794525       0.00000000
Si       1.44296821      -1.33148923      -1.28254156       0.00000000
Si      -1.34969167      -1.38784937       1.33517361       0.00000000
Si      -1.37743354       1.33998283      -1.35863047       0.00000000
Si       0.11798847      -2.66757142      -2.61980703       0.00000000
Si       0.03352482       2.74414827      -2.61632351       0.00000000
Si       0.00249237       2.69532713       2.68805656       0.00000000
Si       2.69371442      -0.03492576       2.69783025       0.00000000
Si      -2.71259453      -0.02567304       2.68090864       0.00000000
Si      -2.79691158      -0.08886195      -2.59479222       0.00000000
