10
Lattice="16.290000149 0.0 0.0 0.0 16.290000149 0.0 0.0 0.0 29.1751946751" Properties=species:S:1:pos:R:3:initial_magmoms:R:1 pbc="T T T"
Si      -1.36728487      -1.35734797      -1.32995125       0.00000000
Si      -1.43793460       1.33332022       1.28178300       0.00000000
Si       1.35285193       1.35264016      -1.36192726       0.00000000
Si       1.36094806      -1.32638068       1.38278753       0.00000000
Si      -0.08441478       2.67502979       2.59236192       0.00000000
Si      -0.09671373      -2.62567109       2.68566420       0.00000000
Si       0.00420282      -2.71379999      -2.66211981       0.00000000
Si      -2.71011845       0.02583594      -2.67399412       0.00000000
Si       2.73167012      -0.01309716      -2.67390659       0.00000000
Si       2.73061127       2.69242751      -0.02975870       0.00000000
