10
Lattice="16.290000149 0.0 0.0 0.0 16.290000149 0.0 0.0 0.0 29.1751946751" Properties=species:S:1:pos:R:3:initial_magmoms:R:1 pbc="T T T"
Si       1.32976086      -1.34504902      -1.39375740       0.00000000
Si      -1.34252407       1.36498798      -1.36201479       0.00000000
Si       1.35252613       1.37264428       1.34725214       0.00000000
Si      -1.34395759      -1.36502056       1.36986292       0.00000000
Si       2.66874185      -2.69892722      -0.02672448       0.00000000
Si      -2.70927137      -2.70576902      -0.00043763       0.00000000
Si      -2.68745906       2.72982935      -0.01114492       0.00000000
Si      -2.71337645       0.01682757      -2.71658990       0.00000000
Si      -2.72901486      -0.02334357       2.70602848       0.00000000
Si       0.00599894       2.71867070      -2.71877804       0.00000000
