10
Lattice="16.290000149 0.0 0.0 0.0 16.290000149 0.0 0.0 0.0 29.1751946751" Properties=species:S:1:pos:R:3:initial_magmoms:R:1 pbc="T T T"
Si       1.72172270      -0.75652390      -1.37887805       0.00000000
Si       1.35917245       1.34633593       1.34036679       0.00000000
Si      -1.43743124       1.18610749      -1.44498904       0.00000000
Si      -1.19090164      -1.69301972       1.19014372       0.00000000
Si      -1.66462136      -0.66463201      -2.88347202       0.00000000
Si       0.64674559      -0.84287719      -3.47902526       0.00000000
Si       2.56751579      -2.60162705      -0.25429100       0.00000000
Si      -2.65144855      -0.41347278       2.53538277       0.00000000
Si      -0.08592975       2.53866620       2.69896575       0.00000000
Si       2.63808407      -0.14910237       2.67893727       0.00000000
