10
Lattice="16.290000149 0.0 0.0 0.0 16.290000149 0.0 0.0 0.0 29.1751946751" Properties=species:S:1:pos:R:3:initial_magmoms:R:1 pbc="T T T"
Si      -1.33776739       1.15461892       1.55644412       0.00000000
Si      -1.30828249      -1.44640540      -1.37037932       0.00000000
Si       1.42768819      -1.36663327       1.33414081       0.00000000
Si       0.83370592       1.99790336      -1.08923372       0.00000000
H        1.91422163       0.28416276      -1.87855286       0.00000000
Si      -0.91188163       3.54121797      -0.63968073       0.00000000
Si      -2.74400166       2.51869466       0.30244174       0.00000000
Si      -2.70804962      -0.02194263      -2.59375358       0.00000000
Si       0.08482203       2.61447986       2.78075491       0.00000000
Si      -2.63448398      -2.82885627       0.00542659       0.00000000
