10
Lattice="16.290000149 0.0 0.0 0.0 16.290000149 0.0 0.0 0.0 29.1751946751" Properties=species:S:1:pos:R:3:initial_magmoms:R:1 pbc="T T T"
Si      -1.33214734       1.36739402      -1.37082570       0.00000000
Si       1.37150724       1.37249604       1.32817156       0.00000000
Si       1.37043210      -1.33936381      -1.37978248       0.00000000
Si      -1.38049606      -1.32618520       1.38862257       0.00000000
Si      -2.63757908      -2.69394248      -0.06643192       0.00000000
Si       0.05642182      -2.69607647       2.65680993       0.00000000
Si      -0.02805138       2.70609482       2.67618226       0.00000000
Si      -2.70425405       2.70633917      -0.00528071       0.00000000
Si      -2.66422952       0.01239669      -2.75364240       0.00000000
Si       2.78493843       0.03300354       2.65120829       0.00000000
