10
Lattice="16.290000149 0.0 0.0 0.0 16.290000149 0.0 0.0 0.0 29.1751946751" Properties=species:S:1:pos:R:3:initial_magmoms:R:1 pbc="T T T"
Si       0.43909695      -0.24777090       2.28333943       0.00000000
Si      -1.71686828       1.63220915       0.10567256       0.00000000
Si      -0.04856049      -2.29420217      -0.66674072       0.00000000
Si       1.86957074       0.89665048      -1.27702745       0.00000000
H       -0.90826525       0.17208756      -2.53048133       0.00000000
Si       2.15482493      -2.67607235       0.13834877       0.00000000
Si      -0.32249313       3.37105263      -0.80993258       0.00000000
Si       2.07205544      -1.98322607       2.36787630       0.00000000
Si       3.46385676       1.70983100       0.28416640       0.00000000
Si      -3.77541930       0.62358121      -0.61495475       0.00000000
