10
Lattice="16.290000149 0.0 0.0 0.0 16.290000149 0.0 0.0 0.0 29.1751946751" Properties=species:S:1:pos:R:3:initial_magmoms:R:1 pbc="T T T"
Si      -1.41059998      -1.28326920       1.38532577       0.00000000
Si       1.32053257      -1.39497299      -1.36758725       0.00000000
Si       1.40802616       1.36334269       1.31577210       0.00000000
Si      -1.34832331       1.33449310      -1.40671119       0.00000000
Si       0.01052334       2.71888247       2.62495062       0.00000000
Si      -2.64526796      -2.71625978      -0.04002837       0.00000000
Si       2.57960297      -2.78699097       0.06433130       0.00000000
Si       2.68711697      -0.03580542      -2.74509407       0.00000000
Si      -2.72060921       2.71969697      -0.09572381       0.00000000
Si       2.73944046       2.71813313      -0.05931317       0.00000000
