10
Lattice="16.290000149 0.0 0.0 0.0 16.290000149 0.0 0.0 0.0 29.1751946751" Properties=species:S:1:pos:R:3:initial_magmoms:R:1 pbc="T T T"
Si       1.35606595      -1.40814019       1.31372984       0.00000000
Si      -1.46054692       1.27954693       1.34523905       0.00000000
Si      -1.10923009      -1.70712686      -1.24738545       0.00000000
Si       1.19090164       1.69301972      -1.19014372       0.00000000
Si       2.36404229      -2.64745082      -0.52882958       0.00000000
Si      -2.77915059      -2.49206051       0.19842050       0.00000000
Si       2.52946724       0.05963769       2.76304556       0.00000000
Si      -2.86372827       2.44897346      -0.11497944       0.00000000
Si      -0.13172746      -2.60815934       2.74846672       0.00000000
Si       0.30549126      -3.65607876      -1.24945689       0.00000000
