10
Lattice="16.290000149 0.0 0.0 0.0 16.290000149 0.0 0.0 0.0 29.1751946751" Properties=species:S:1:pos:R:3:initial_magmoms:R:1 pbc="T T T"
Si       1.35024553       1.37332846      -1.31483850       0.00000000
Si       1.55256733      -1.32545215       1.17783178       0.00000000
Si      -1.37163430       1.36945144       1.34567668       0.00000000
Si      -1.39878973      -1.32976900      -1.36376530       0.00000000
Si      -0.04608441       2.71354587      -2.68157967       0.00000000
Si       2.58491351       2.80631905       0.11051564       0.00000000
Si       2.63432108      -2.74766691      -0.31993518       0.00000000
Si       2.65344554       0.02735091      -2.75017055       0.00000000
Si      -2.77089645      -2.65701305      -0.00268412       0.00000000
Si      -2.72898227       0.08307900       2.71139672       0.00000000
