10
Lattice="16.290000149 0.0 0.0 0.0 16.290000149 0.0 0.0 0.0 29.1751946751" Properties=species:S:1:pos:R:3:initial_magmoms:R:1 pbc="T T T"
Si      -0.92644489       1.04215276      -1.83587830       0.00000000
Si       1.07334811       1.75901051       1.06305657       0.00000000
Si       1.33389037      -1.54712647      -1.15393730       0.00000000
Si      -1.93753262      -1.02970720       0.90180527       0.00000000
H        0.51404724      -1.28265832       2.39493338       0.00000000
Si       0.69304177      -2.67053213       1.78505511       0.00000000
Si      -1.69474646      -1.00403416      -2.71658990       0.00000000
Si      -0.47338740      -2.87493253      -1.76352382       0.00000000
Si      -2.22278681       2.54301563      -0.51357095       0.00000000
Si      -1.20715417      -3.21952631       0.49854573       0.00000000
