10
Lattice="16.290000149 0.0 0.0 0.0 16.290000149 0.0 0.0 0.0 29.1751946751" Properties=species:S:1:pos:R:3:initial_magmoms:R:1 pbc="T T T"
Si       1.04254372      -1.11663553      -0.00434710       0.00000000
Si      -1.87466951       1.85061895      -0.71409206       0.00000000
Si      -0.33503643       2.57262434       0.88911406       0.00000000
Si      -0.26438670       1.11022215       2.82202906       0.00000000
H        1.21513627       2.18345623      -1.74050459       0.00000000
Si      -1.83813104      -0.57800016       2.38090011       0.00000000
Si      -1.25332003       0.77112951      -2.75302972       0.00000000
Si       2.91272859      -0.21194919       1.10935760       0.00000000
Si       1.31818681      -1.87169495      -2.20150184       0.00000000
Si       0.20352726      -3.04578042       1.00809050       0.00000000
