10
Lattice="16.290000149 0.0 0.0 0.0 16.290000149 0.0 0.0 0.0 29.1751946751" Properties=species:S:1:pos:R:3:initial_magmoms:R:1 pbc="T T T"
Si       1.53705925      -1.27176031      -1.19805019       0.00000000
Si       1.39582495       1.32131449       1.36486812       0.00000000
Si      -1.21673269      -1.43467660       1.44190814       0.00000000
Si      -1.47167119       1.20857140      -1.45482108       0.00000000
H        0.35562699      -1.80939548      -2.25010771       0.00000000
Si      -2.67063149       2.68193675      -0.02587840       0.00000000
Si       2.85566293       2.49984713      -0.05123164       0.00000000
Si      -2.64813500      -0.06279795       2.72620021       0.00000000
Si      -0.14072931       2.54081648      -2.85228373       0.00000000
Si       0.06533919       2.76170889       2.67864173       0.00000000
