10
Lattice="16.290000149 0.0 0.0 0.0 16.290000149 0.0 0.0 0.0 29.1751946751" Properties=species:S:1:pos:R:3:initial_magmoms:R:1 pbc="T T T"
Si      -0.83324980       1.24418297      -1.71419440       0.00000000
Si      -1.83212003      -1.02252331       0.94212247       0.00000000
Si       1.04021425       1.85375803       0.95145270       0.00000000
Si       1.74558755      -1.54331461      -0.44955299       0.00000000
H       -1.01224432       2.63205677      -1.10431613       0.00000000
Si      -0.42588576      -2.38659905       2.19612485       0.00000000
Si       1.49393962      -1.03104298      -2.74682124       0.00000000
Si       2.45690669       0.51057503       2.20623114       0.00000000
Si       1.06290622       1.25951838      -3.05246058       0.00000000
Si       0.99670366      -0.92673811       3.42043564       0.00000000
