10
Lattice="16.290000149 0.0 0.0 0.0 16.290000149 0.0 0.0 0.0 29.1751946751" Properties=species:S:1:pos:R:3:initial_magmoms:R:1 pbc="T T T"
Si       1.35922132       1.36446670       1.33085568       0.00000000
Si       1.36599796      -1.34669431      -1.35011131       0.00000000
Si      -1.32877531       1.36741519      -1.37563960       0.00000000
Si      -1.35610993      -1.37717290       1.35632563       0.00000000
Si       2.69540858      -0.01086543       2.68417626       0.00000000
Si      -0.00249237      -2.69532713      -2.68805656       0.00000000
Si      -2.70716996       0.00348606      -2.68050019       0.00000000
Si      -2.71404434       2.68165982      -0.01709666       0.00000000
Si       0.01182654       2.71147052       2.69791778       0.00000000
Si       2.69682581       2.71972955      -0.05277793       0.00000000
