10
Lattice="16.290000149 0.0 0.0 0.0 16.290000149 0.0 0.0 0.0 29.1751946751" Properties=species:S:1:pos:R:3:initial_magmoms:R:1 pbc="T T T"
Si      -2.07174593       0.72400254      -0.84444683       0.00000000
Si      -0.77362840      -1.50159429       1.71258393       0.00000000
Si       1.04951584      -0.67090203      -2.07041769       0.00000000
Si       0.93041965       2.07718842       0.81883101       0.00000000
H       -1.38266263       2.27981973       1.74009614       0.00000000
Si      -1.33120252       1.31213671      -3.00414062       0.00000000
Si      -2.66610287       2.23942053       0.92216955       0.00000000
H        0.40288428      -3.59125922      -0.52952978       0.00000000
Si      -2.31197456      -2.81953676       0.52760422       0.00000000
Si      -3.34660134      -1.27578231      -0.94857310       0.00000000
