10
Lattice="16.290000149 0.0 0.0 0.0 16.290000149 0.0 0.0 0.0 29.1751946751" Properties=species:S:1:pos:R:3:initial_magmoms:R:1 pbc="T T T"
Si      -1.35868375      -1.36177885       1.34398452       0.00000000
Si      -1.39065776       1.34998489      -1.32776311       0.00000000
Si       1.31821939      -1.36277254      -1.38923524       0.00000000
Si       1.37572309       1.36091548       1.34768977       0.00000000
Si      -0.01461213       2.69891093      -2.67732009       0.00000000
Si       2.68382639      -2.71860554      -0.05770854       0.00000000
Si       0.00979029      -2.69373071       2.71367238       0.00000000
Si      -2.70466805      -0.00672777       2.70882930       0.00000000
Si       2.68615586      -0.01788642      -2.73126502       0.00000000
Si       0.02384856       2.72235224       2.70322766       0.00000000
