10
Lattice="16.290000149 0.0 0.0 0.0 16.290000149 0.0 0.0 0.0 29.1751946751" Properties=species:S:1:pos:R:3:initial_magmoms:R:1 pbc="T T T"
Si      -0.53178705      -0.25673040       1.38710546       0.00000000
H       -0.66984481      -0.92351269      -1.61875650       0.00000000
H       -1.59291766       0.84549988      -1.17074221       0.00000000
H        1.26902359       1.75827746       0.42414898       0.00000000
Si       0.45934542      -0.98064172      -2.62603010       0.00000000
Si       2.17852688       1.83120779      -0.79166891       0.00000000
Si       2.52157799      -0.28906605      -1.72285360       0.00000000
Si       1.15745338      -1.18671022       2.69835541       0.00000000
Si      -2.33007275      -1.85161916       1.26865417       0.00000000
Si      -1.38116395       1.61850925       2.50148119       0.00000000
