10
Lattice="16.290000149 0.0 0.0 0.0 16.290000149 0.0 0.0 0.0 29.1751946751" Properties=species:S:1:pos:R:3:initial_magmoms:R:1 pbc="T T T"
H        0.71542423       0.07732863       1.32697538       0.00000000
H       -1.39976713       0.83466703       1.62587525       0.00000000
Si       1.60687819      -0.79342075      -1.52361619       0.00000000
Si      -1.87106942      -1.46108269      -0.15395750       0.00000000
Si      -0.34547832       1.95027140      -1.37289714       0.00000000
H        1.86142574       1.70895134       0.19818710       0.00000000
H        2.51265107       1.28666566       0.24270844       0.00000000
Si      -0.80325991       0.92528830       3.02821016       0.00000000
Si       0.12051342      -1.80708230      -2.99337497       0.00000000
Si      -1.00049923      -3.24330645      -1.43979586       0.00000000
