10
Lattice="16.290000149 0.0 0.0 0.0 16.290000149 0.0 0.0 0.0 29.1751946751" Properties=species:S:1:pos:R:3:initial_magmoms:R:1 pbc="T T T"
Si      -1.43439967       1.34644019      -1.26127284       0.00000000
Si      -1.37961640      -1.34385985       1.33447340       0.00000000
Si       1.34620561       1.38770602       1.33989999       0.00000000
Si       1.35368272      -1.32932917      -1.40087615       0.00000000
Si      -0.10101429       2.68669343      -2.59006583       0.00000000
Si      -0.01177767      -2.69250896       2.67641566       0.00000000
Si       2.69951366      -2.67423158      -0.03515611       0.00000000
Si       2.70537806       0.03429045       2.69278294       0.00000000
Si      -2.72929179       0.03328047       2.68283420       0.00000000
Si      -0.06890670      -2.78919012      -2.62518693       0.00000000
