10
Lattice="16.290000149 0.0 0.0 0.0 16.290000149 0.0 0.0 0.0 29.1751946751" Properties=species:S:1:pos:R:3:initial_magmoms:R:1 pbc="T T T"
Si      -1.68031352       1.67544281       0.24857266       0.00000000
Si       0.35521974      -0.23511357       2.35948552       0.00000000
Si       1.63993060       1.05318109      -1.43151010       0.00000000
Si      -1.06678324      -1.68709016      -1.38485897       0.00000000
H        1.90351421      -1.57312531       0.27413013       0.00000000
H        0.53571294       2.46312947       1.37572713       0.00000000
H       -1.08520723       0.05149269       2.80280260       0.00000000
Si      -2.41499252      -0.28096992      -2.75836878       0.00000000
Si       0.34805214       2.46436751      -2.79367077       0.00000000
Si      -3.54085959       0.83461816      -1.00598989       0.00000000
