10
Lattice="16.290000149 0.0 0.0 0.0 16.290000149 0.0 0.0 0.0 29.1751946751" Properties=species:S:1:pos:R:3:initial_magmoms:R:1 pbc="T T T"
Si       1.35309628       1.01219545      -1.63541554       0.00000000
Si       1.44366868      -1.63173299       0.91335864       0.00000000
Si      -1.84417463      -1.18881652      -1.00768205       0.00000000
Si      -0.10588500       1.72270010       1.80334796       0.00000000
H       -2.26986491       1.46038222       0.48057381       0.00000000
Si       2.76558591       2.31008492      -0.24127886       0.00000000
H        3.63214875      -0.34720181       0.09514031       0.00000000
Si       0.60468481       0.39066678       3.59773913       0.00000000
Si       2.59253723      -0.51048462       2.64759057       0.00000000
Si      -2.91437877       2.30798351      -0.59438624       0.00000000
