10
Lattice="16.290000149 0.0 0.0 0.0 16.290000149 0.0 0.0 0.0 29.1751946751" Properties=species:S:1:pos:R:3:initial_magmoms:R:1 pbc="T T T"
Si      -1.35966115       1.35145099       1.35413749       0.00000000
Si      -1.35897697      -1.34382727      -1.36347355       0.00000000
Si       1.32307381      -1.36547668       1.39203606       0.00000000
Si       1.35610993       1.37717290      -1.35632563       0.00000000
Si       2.69620679       0.01777239       2.70133127       0.00000000
Si       2.69518052      -2.70442184       0.02649108       0.00000000
Si       0.01510083       2.71414208       2.68604347       0.00000000
Si      -2.72311787      -2.69114223      -0.01292461       0.00000000
Si       0.00392589      -2.70600360      -2.70920858       0.00000000
Si      -2.71393031       2.70330923      -0.01528780       0.00000000
