10
Lattice="16.290000149 0.0 0.0 0.0 16.290000149 0.0 0.0 0.0 29.1751946751" Properties=species:S:1:pos:R:3:initial_magmoms:R:1 pbc="T T T"
Si      -1.35917245       1.35341557      -1.35288295       0.00000000
Si      -1.36096435      -1.36344043       1.34170885       0.00000000
Si       1.33208218       1.35499733       1.38281670       0.00000000
Si       1.35132067      -1.36026388      -1.36032263       0.00000000
Si       2.68423364       2.70633917       0.00977369       0.00000000
Si       0.02665044      -2.70633917       2.68721048       0.00000000
Si      -2.71410950       0.02042766       2.68087946       0.00000000
Si      -2.70537806      -0.03429045      -2.69278294       0.00000000
Si       2.66422952      -0.01239669       2.75364240       0.00000000
Si      -0.00948078       2.74126494      -2.68805656       0.00000000
