10
Lattice="16.290000149 0.0 0.0 0.0 16.290000149 0.0 0.0 0.0 29.1751946751" Properties=species:S:1:pos:R:3:initial_magmoms:R:1 pbc="T T T"
Si       1.30657204       1.44272761      -1.27446003       0.00000000
Si      -1.04282065       1.61607390       1.31973993       0.00000000
Si       1.50882868      -1.00893745       1.51670167       0.00000000
Si      -1.58529394      -1.30872232      -1.19866287       0.00000000
Si       2.45544059       2.56397598       0.45977189       0.00000000
Si      -1.56875959       0.36382086       3.25250905       0.00000000
H        0.66080386      -2.26970201      -2.83393253       0.00000000
Si       2.59530653       0.02013444      -2.62503814       0.00000000
Si       3.03909501       0.82230292       1.96144834       0.00000000
Si       2.50766633      -2.76804570       0.24402133       0.00000000
