10
Lattice="16.290000149 0.0 0.0 0.0 16.290000149 0.0 0.0 0.0 29.1751946751" Properties=species:S:1:pos:R:3:initial_magmoms:R:1 pbc="T T T"
Si      -1.35571897      -1.34053669       1.31495812       0.00000000
Si      -1.40623426       1.36407574      -1.25400238       0.00000000
Si       1.33776739      -1.15461892      -1.55644412       0.00000000
Si       1.42258942       1.45986094       1.22431079       0.00000000
Si       0.42588576       2.38659905      -2.19612485       0.00000000
Si       2.17147331       0.84328444      -2.64567784       0.00000000
Si       0.07727976      -2.66033621       2.59779143       0.00000000
Si      -2.69145011       0.10096542       2.60371399       0.00000000
Si      -2.66012444      -2.63547767      -0.16085452       0.00000000
Si       2.76545559      -2.52125219      -0.22230331       0.00000000
