10
Lattice="16.290000149 0.0 0.0 0.0 16.290000149 0.0 0.0 0.0 29.1751946751" Properties=species:S:1:pos:R:3:initial_magmoms:R:1 pbc="T T T"
Si      -1.36783873       1.34864911      -1.34194225       0.00000000
Si      -1.37398006      -1.34229601       1.34348854       0.00000000
Si       1.35547462      -1.35260758      -1.36577839       0.00000000
Si       1.35619138       1.36335898       1.35807614       0.00000000
Si       0.01177767       2.69250896      -2.67641566       0.00000000
Si      -0.01221750      -2.73702954       2.64796984       0.00000000
Si       2.71788878      -2.69254154      -0.00186721       0.00000000
Si      -2.72562653       0.02767671       2.69482521       0.00000000
Si       2.71129133       0.01827738      -2.71157177       0.00000000
Si      -2.72883567      -2.69550632      -0.01697996       0.00000000
