10
Lattice="16.290000149 0.0 0.0 0.0 16.290000149 0.0 0.0 0.0 29.1751946751" Properties=species:S:1:pos:R:3:initial_magmoms:R:1 pbc="T T T"
Si      -2.27151020       0.46599174      -0.10611018       0.00000000
Si       0.25524801      -0.83108323      -2.15228329       0.00000000
Si       1.03462678      -1.54375444       1.47617733       0.00000000
Si       1.27485541       1.99978485       0.10412627       0.00000000
Si      -2.54715329       1.22105117       2.09104455       0.00000000
Si       3.34660134       1.27578231       0.94857310       0.00000000
Si       2.57297294      -0.22581198       2.66115703       0.00000000
Si       1.15528681       0.90883540      -3.42449683       0.00000000
Si       1.92225260      -2.47176317      -2.06604141       0.00000000
Si       2.39259377      -2.89241985       0.14567175       0.00000000
