10
Lattice="16.290000149 0.0 0.0 0.0 16.290000149 0.0 0.0 0.0 29.1751946751" Properties=species:S:1:pos:R:3:initial_magmoms:R:1 pbc="T T T"
Si       1.30751686      -1.42545646      -1.30087613       0.00000000
Si       1.41281542       1.29542968       1.34423455       0.00000000
Si      -1.29951847      -1.48427965       1.27425201       0.00000000
Si      -1.27891162       1.49543830      -1.33857048       0.00000000
Si       2.57116475       0.05748741      -2.62811408       0.00000000
Si      -2.68407074      -0.11362275       2.62565578       0.00000000
Si       0.03119535       2.65188170       2.66860458       0.00000000
Si      -2.63808407       0.14910237      -2.67893727       0.00000000
Si      -0.07056828      -2.45252468      -2.93322827       0.00000000
Si      -2.72401382       2.68776857       0.02002848       0.00000000
