10
Lattice="16.290000149 0.0 0.0 0.0 16.290000149 0.0 0.0 0.0 29.1751946751" Properties=species:S:1:pos:R:3:initial_magmoms:R:1 pbc="T T T"
Si       2.27151020      -0.46599174       0.10611018       0.00000000
Si      -0.27564309       0.75505943       2.19715474       0.00000000
Si      -0.58365442       1.74167306      -1.50167645       0.00000000
Si      -1.53026632      -1.83124037      -0.44474667       0.00000000
H       -1.31818681       1.87169495       2.20150184       0.00000000
Si       2.52675821      -1.29707497      -2.04617310       0.00000000
Si      -1.11465955      -1.17408547       3.20959234       0.00000000
Si      -2.67747329      -1.95198185       1.61423435       0.00000000
Si      -3.03909501      -0.82230292      -1.96144834       0.00000000
Si      -1.73252297       0.62042469      -3.23590837       0.00000000
