10
Lattice="16.290000149 0.0 0.0 0.0 16.290000149 0.0 0.0 0.0 29.1751946751" Properties=species:S:1:pos:R:3:initial_magmoms:R:1 pbc="T T T"
Si      -0.98332957       1.85919401      -0.89319858       0.00000000
Si      -1.76966417      -1.48235743       0.33315155       0.00000000
Si       0.37374147       0.64635463       2.22557138       0.00000000
Si       1.77083705      -0.96850567      -1.24974864       0.00000000
H       -0.39314286      -1.23082354      -2.57252279       0.00000000
Si       1.86005738      -1.22104954       2.58358019       0.00000000
Si       2.48140685      -2.30053898       0.54464253       0.00000000
Si      -2.46969434       0.84553246      -2.36295737       0.00000000
Si      -1.08828604      -3.53464170      -0.42957557       0.00000000
Si      -3.59070699      -0.59069170      -0.80937825       0.00000000
