10
Lattice="16.290000149 0.0 0.0 0.0 16.290000149 0.0 0.0 0.0 29.1751946751" Properties=species:S:1:pos:R:3:initial_magmoms:R:1 pbc="T T T"
Si       2.24505524      -0.50585337       0.28086960       0.00000000
Si      -1.57374433      -1.68822231      -0.44112894       0.00000000
Si      -0.73101376       0.63377875       2.17958193       0.00000000
Si      -0.07064973       1.46240218      -1.93291500       0.00000000
H        0.26438670      -1.11022215      -2.82202906       0.00000000
Si      -2.82905175      -0.58015207      -2.04185517       0.00000000
Si      -1.30227148       3.31283217      -1.26655355       0.00000000
Si       1.30693042      -2.22685768      -2.82637616       0.00000000
Si       3.17711529      -1.32217135      -1.71267145       0.00000000
H       -0.00679293       3.86330386      -0.34359627       0.00000000
