10
Lattice="16.290000149 0.0 0.0 0.0 16.290000149 0.0 0.0 0.0 29.1751946751" Properties=species:S:1:pos:R:3:initial_magmoms:R:1 pbc="T T T"
H       -1.04254372       1.11663553       0.00434710       0.00000000
Si      -0.83901646      -1.92914490       1.01243761       0.00000000
Si       0.27564309      -0.75505943      -2.19715474       0.00000000
Si       1.87018487       0.90468634       1.11370471       0.00000000
Si       2.54715329      -1.22105117      -2.09104455       0.00000000
Si      -2.40183020      -2.70704127      -0.58292039       0.00000000
Si       0.93812482       1.72100431       3.10724576       0.00000000
H        0.17259255       3.30009176      -1.73615748       0.00000000
Si      -2.88067476       0.53863537       2.38524722       0.00000000
Si       0.93449215      -3.08176015       2.04007549       0.00000000
