10
Lattice="16.290000149 0.0 0.0 0.0 16.290000149 0.0 0.0 0.0 29.1751946751" Properties=species:S:1:pos:R:3:initial_magmoms:R:1 pbc="T T T"
Si       1.34852301       1.35368272      -1.35676325       0.00000000
Si      -1.34493499       1.36484137       1.35086986       0.00000000
Si       1.34252407      -1.36498798       1.36201479       0.00000000
Si      -1.37085238      -1.34816041      -1.35457511       0.00000000
Si      -2.68198562      -0.08169435       2.60902096       0.00000000
Si       2.67228493      -2.71003700      -0.03174261       0.00000000
Si       2.66307619       2.71942004       0.03751930       0.00000000
Si       2.69505020       0.00765630       2.70926693       0.00000000
Si      -0.02026476       2.71091666      -2.69666324       0.00000000
Si      -0.02645496      -2.67880907      -2.74121377       0.00000000
