10
Lattice="16.290000149 0.0 0.0 0.0 16.290000149 0.0 0.0 0.0 29.1751946751" Properties=species:S:1:pos:R:3:initial_magmoms:R:1 pbc="T T T"
Si      -1.35602034       1.32268285      -1.35892222       0.00000000
Si       1.30636027       1.43749477       1.31717251       0.00000000
Si       1.42164460      -1.38309106      -1.30363522       0.00000000
Si      -1.40641997      -1.34929257       1.37546455       0.00000000
H        2.19289466       0.51057747       2.11485151       0.00000000
H        0.13585860       0.16731459       3.48993679       0.00000000
Si      -2.60223434       2.68209965       0.08163219       0.00000000
Si      -2.61523784      -2.74106946      -0.08460806       0.00000000
H       -3.03015180      -1.31852564       1.86420741       0.00000000
Si      -0.05931189      -2.78063787       2.59994747       0.00000000
