10
Lattice="16.290000149 0.0 0.0 0.0 16.290000149 0.0 0.0 0.0 29.1751946751" Properties=species:S:1:pos:R:3:initial_magmoms:R:1 pbc="T T T"
Si      -1.30886893      -1.28933722       1.47047649       0.00000000
Si      -1.34869798       1.36228384      -1.37627271       0.00000000
Si       1.43140231      -1.37187865      -1.28429207       0.00000000
Si       1.37178091       1.40629942       1.31208436       0.00000000
Si      -2.62084925      -2.64909611       0.12471520       0.00000000
Si       2.64813500       0.06279795      -2.72620021       0.00000000
Si       2.74634742      -2.63534735       0.18833463       0.00000000
Si      -2.71210583       2.71028135       0.01389031       0.00000000
Si       2.71111214       0.06977007       2.73361655       0.00000000
Si      -2.73737162      -0.01607823      -2.71841043       0.00000000
