10
Lattice="16.290000149 0.0 0.0 0.0 16.290000149 0.0 0.0 0.0 29.1751946751" Properties=species:S:1:pos:R:3:initial_magmoms:R:1 pbc="T T T"
Si       2.20338542      -0.38187018       0.80508950       0.00000000
Si       0.04856049       2.29420217       0.66674072       0.00000000
Si       0.14496471      -0.41407551      -2.35881449       0.00000000
Si      -1.52179552      -1.37364938       1.28242486       0.00000000
H       -2.16811757      -0.21144420      -1.43754937       0.00000000
H       -0.85970476       2.46628973      -1.86374061       0.00000000
Si       0.48765744       2.04643127       2.95008015       0.00000000
Si      -0.70628554       1.67182643      -3.14138074       0.00000000
Si       2.12061593       0.31097610       3.03461703       0.00000000
Si       2.44617158      -0.35619714      -2.81330567       0.00000000
