10
Lattice="16.290000149 0.0 0.0 0.0 16.290000149 0.0 0.0 0.0 29.1751946751" Properties=species:S:1:pos:R:3:initial_magmoms:R:1 pbc="T T T"
Si      -1.35936793       1.35757603       1.33969576       0.00000000
Si       1.34863282       1.37380087      -1.33689495       0.00000000
Si       1.38394954      -1.35896068       1.32105281       0.00000000
Si      -1.35581671      -1.37186236      -1.33774103       0.00000000
Si       2.67884165      -0.04580096      -2.62305423       0.00000000
Si       0.00904095      -2.71629236       2.65217107       0.00000000
Si      -2.72631071      -0.01112933      -2.65106241       0.00000000
Si       0.01412343       2.70407486       2.68382616       0.00000000
Si       2.73240317       0.01032623       2.67440257       0.00000000
Si      -2.70280424       0.00156058       2.70506570       0.00000000
