10
Lattice="16.290000149 0.0 0.0 0.0 16.290000149 0.0 0.0 0.0 29.1751946751" Properties=species:S:1:pos:R:3:initial_magmoms:R:1 pbc="T T T"
Si      -0.63001576       0.40088061      -2.14787783       0.00000000
Si       1.48440997      -1.80144596       0.11652573       0.00000000
Si       0.97062337       1.99674677       0.87659790       0.00000000
Si      -2.12353184      -0.58490875       1.00196371       0.00000000
H        0.08337222      -0.82622881       2.57304794       0.00000000
H        0.73459756      -1.24851448       2.61756929       0.00000000
H        2.28281546       1.53486010       1.48069948       0.00000000
H        2.85097809       1.40828680      -0.85028187       0.00000000
Si      -2.35167329       1.55123155       1.91047927       0.00000000
Si      -0.17117532      -3.32860089       0.85124466       0.00000000
