10
Lattice="16.290000149 0.0 0.0 0.0 16.290000149 0.0 0.0 0.0 29.1751946751" Properties=species:S:1:pos:R:3:initial_magmoms:R:1 pbc="T T T"
Si       1.34097652       1.36120870       1.36589509       0.00000000
Si      -1.35187616       1.35940051      -1.35819284       0.00000000
Si      -1.35869190      -1.35549091       1.35810531       0.00000000
Si       1.36879984      -1.35428545      -1.35014048       0.00000000
Si      -2.68245382       2.70822881       0.03308467       0.00000000
Si       2.70658352       0.00537570       2.69742180       0.00000000
Si       0.00801468      -2.70826139      -2.70325684       0.00000000
Si       2.70891299       2.70609482       0.02386531       0.00000000
Si      -2.71272485      -2.70795188       0.00072938       0.00000000
Si       2.71663445      -2.71428869       0.01665904       0.00000000
