10
Lattice="16.290000149 0.0 0.0 0.0 16.290000149 0.0 0.0 0.0 29.1751946751" Properties=species:S:1:pos:R:3:initial_magmoms:R:1 pbc="T T T"
Si      -1.33705063      -1.44653572       1.25815110       0.00000000
Si       1.34493499      -1.36484137      -1.35086986       0.00000000
Si      -1.38761479       1.34289874      -1.34550163       0.00000000
Si       1.25708302       1.36775728       1.45505448       0.00000000
Si      -2.69873174      -0.07705170       2.52172878       0.00000000
Si       2.63757908       2.69394248       0.06643192       0.00000000
Si      -0.02665044       2.70633917      -2.68721048       0.00000000
Si       2.69345800      -0.01115865      -2.70763312       0.00000000
Si       2.69400090      -0.00213399       2.72324185       0.00000000
Si       2.68745906      -2.72982935       0.01114492       0.00000000
