10
Lattice="16.290000149 0.0 0.0 0.0 16.290000149 0.0 0.0 0.0 29.1751946751" Properties=species:S:1:pos:R:3:initial_magmoms:R:1 pbc="T T T"
Si      -1.37150724      -1.37249604      -1.32817156       0.00000000
Si       1.34810828       1.35469433      -1.37418084       0.00000000
Si       1.41343118      -1.33949250       1.32303673       0.00000000
Si      -1.39955862       1.33359878       1.34801069       0.00000000
Si      -0.03482313       2.71500708       2.66716712       0.00000000
Si       0.09323419      -2.72945306       2.66410373       0.00000000
Si      -2.70365458      -0.00510203      -2.69899726       0.00000000
Si      -0.00107514      -2.71185986      -2.70795404       0.00000000
Si      -2.70262831       2.71709220      -0.02415706       0.00000000
Si       2.70320824       2.72175114      -0.03506858       0.00000000
