10
Lattice="16.290000149 0.0 0.0 0.0 16.290000149 0.0 0.0 0.0 29.1751946751" Properties=species:S:1:pos:R:3:initial_magmoms:R:1 pbc="T T T"
Si      -1.41625261      -1.32411637       1.23939144       0.00000000
Si       1.36168111      -1.36948402      -1.26357768       0.00000000
Si       1.23170320       1.13565736       1.62619618       0.00000000
Si      -1.39712815       1.45090144      -1.19084392       0.00000000
Si      -0.36830061       1.06930819       3.41702798       0.00000000
Si       2.69873174       0.07705170      -2.52172878       0.00000000
Si      -2.49800636       0.09809838       2.73715841       0.00000000
Si      -0.05729193      -2.68043807      -2.57733670       0.00000000
Si       2.52454277       2.72614781       0.34884780       0.00000000
Si      -0.12181662      -2.62026281       2.66433713       0.00000000
