10
Lattice="16.290000149 0.0 0.0 0.0 16.290000149 0.0 0.0 0.0 29.1751946751" Properties=species:S:1:pos:R:3:initial_magmoms:R:1 pbc="T T T"
Si       0.66494152      -1.26886884       0.47894000       0.00000000
Si      -1.42786738       1.55295829       0.71768061       0.00000000
H        2.05703606       0.34326288      -1.37508528       0.00000000
Si       1.17050167       1.27018018      -2.17276427       0.00000000
Si       0.04909806       2.70557354      -0.70312219       0.00000000
Si      -2.79329520      -0.18968076      -0.41980188       0.00000000
Si      -1.54227857      -1.51660716      -2.11447223       0.00000000
Si      -0.19517049      -2.94795246      -0.88998931       0.00000000
Si      -0.13587489       1.66848698       2.72239577       0.00000000
Si       2.97663915      -1.17996616       0.12802075       0.00000000
