10
Lattice="16.290000149 0.0 0.0 0.0 16.290000149 0.0 0.0 0.0 29.1751946751" Properties=species:S:1:pos:R:3:initial_magmoms:R:1 pbc="T T T"
Si      -1.35578413      -1.31413060       1.39849545       0.00000000
Si       1.34350147       1.36889758       1.36339769       0.00000000
Si      -1.37428957       1.35110890      -1.36004546       0.00000000
Si       1.42625467      -1.37611405      -1.29302129       0.00000000
Si      -2.67602348      -2.65580759       0.00531572       0.00000000
Si      -2.54772344      -0.11696220      -2.80906360       0.00000000
Si       2.68468976      -0.00723276      -2.71719091       0.00000000
Si       2.71060715       2.71912682       0.01379403       0.00000000
Si      -0.00221544      -2.68136660       2.75277881       0.00000000
Si       2.80228728      -2.64000629       0.12303180       0.00000000
