10
Lattice="16.290000149 0.0 0.0 0.0 16.290000149 0.0 0.0 0.0 29.1751946751" Properties=species:S:1:pos:R:3:initial_magmoms:R:1 pbc="T T T"
Si       0.65506978      -0.42270921       2.13065280       0.00000000
Si      -1.07077429      -1.75987388      -1.06334832       0.00000000
Si      -1.70140907       1.59715306      -0.01432502       0.00000000
Si       1.78701302       0.58650517      -1.44017513       0.00000000
Si      -0.30804390       3.03285594      -1.18947269       0.00000000
H        3.08284995       1.13564107      -0.51689692       0.00000000
H       -0.55850266      -3.04100094       1.33208104       0.00000000
Si      -1.99954865      -0.71677630      -2.89689260       0.00000000
Si      -1.25276617      -1.21285567       3.25149084       0.00000000
Si       0.76088962       1.92166616      -3.05659762       0.00000000
