10
Lattice="16.290000149 0.0 0.0 0.0 16.290000149 0.0 0.0 0.0 29.1751946751" Properties=species:S:1:pos:R:3:initial_magmoms:R:1 pbc="T T T"
Si      -2.19339965       0.72716932       0.46382724       0.00000000
Si      -0.27246654      -2.03030417       1.19825442       0.00000000
Si       1.57105648       1.31147533       1.20969110       0.00000000
Si      -0.28364148       0.88672987      -2.24290144       0.00000000
H        2.22229811      -0.95653252      -1.63185616       0.00000000
H        0.80060464      -1.86644306      -2.18131261       0.00000000
H        1.60158394      -2.61588080      -0.52839195       0.00000000
H        1.03612546      -2.49248405       1.80883289       0.00000000
Si      -2.14009877       2.87314552      -0.51683857       0.00000000
Si      -2.40683123      -0.08350254      -2.92539677       0.00000000
