10
Lattice="16.290000149 0.0 0.0 0.0 16.290000149 0.0 0.0 0.0 29.1751946751" Properties=species:S:1:pos:R:3:initial_magmoms:R:1 pbc="T T T"
Si       1.35897697      -1.33815835       1.36887096       0.00000000
Si      -1.35247726       1.35549091       1.36195644       0.00000000
Si       1.35322660       1.37236735      -1.34436380       0.00000000
Si      -1.33962445      -1.40354641      -1.33444423       0.00000000
Si       2.70229925      -2.66903507      -0.01762182       0.00000000
Si      -2.77360059      -0.08379576      -2.61599383       0.00000000
Si      -2.72437220       0.00922014       2.69803448       0.00000000
Si       0.00485442       2.71681364      -2.70757477       0.00000000
Si       0.00700470      -2.73067643       2.69479603       0.00000000
Si       2.70896186       2.71974584       0.02485727       0.00000000
