10
Lattice="16.290000149 0.0 0.0 0.0 16.290000149 0.0 0.0 0.0 29.1751946751" Properties=species:S:1:pos:R:3:initial_magmoms:R:1 pbc="T T T"
Si      -1.38135943       1.34578207       1.31883550       0.00000000
Si      -1.37142253      -1.36063855      -1.32674198       0.00000000
Si       1.35197227       1.39251808      -1.32592507       0.00000000
Si       1.35461125      -1.32910111       1.38876844       0.00000000
Si       0.03557736       2.65593791       2.63329472       0.00000000
Si       0.01376505      -2.67502979      -2.68455554       0.00000000
Si       2.70130556      -2.67603977       0.02182305       0.00000000
Si      -2.72670167       0.00878031      -2.66681702       0.00000000
Si      -2.72935694      -0.01159848       2.67367319       0.00000000
Si       2.69529455       0.06164136      -2.71241785       0.00000000
