10
Lattice="16.290000149 0.0 0.0 0.0 16.290000149 0.0 0.0 0.0 29.1751946751" Properties=species:S:1:pos:R:3:initial_magmoms:R:1 pbc="T T T"
Si       1.39009087       1.34488612       1.27506396       0.00000000
Si       1.25752285      -1.40183596      -1.36356983       0.00000000
Si      -1.31496139       1.26306145      -1.47251876       0.00000000
Si      -1.41095836      -1.40455639       1.25659606       0.00000000
Si      -2.17215749      -0.67326571      -2.51267571       0.00000000
Si      -0.46713204      -2.34145946      -2.63993762       0.00000000
Si      -0.03427416       2.70526403       2.54535193       0.00000000
Si       2.72015896      -0.06390567       2.58517607       0.00000000
Si       2.57878847      -0.07589511      -2.72778588       0.00000000
Si       2.68539023       2.65917962      -0.19369995       0.00000000
