10
Lattice="16.290000149 0.0 0.0 0.0 16.290000149 0.0 0.0 0.0 29.1751946751" Properties=species:S:1:pos:R:3:initial_magmoms:R:1 pbc="T T T"
Si       1.33325506       1.34008546      -1.32780687       0.00000000
Si      -1.32901966       1.42120966       1.28467135       0.00000000
Si       1.43485579      -1.34576090       1.26068934       0.00000000
Si      -1.36151821      -1.28240350      -1.40883514       0.00000000
Si       0.05600502      -2.68963704       2.59478346       0.00000000
Si      -2.67713120       0.04793495       2.62066186       0.00000000
Si       0.05566293       2.77002167       2.61144250       0.00000000
Si       2.78065416       0.04160955       2.60085190       0.00000000
Si      -2.71098182      -2.67740325      -0.09840793       0.00000000
Si      -0.04147434      -2.77211331      -2.61588296       0.00000000
