10
Lattice="16.290000149 0.0 0.0 0.0 16.290000149 0.0 0.0 0.0 29.1751946751" Properties=species:S:1:pos:R:3:initial_magmoms:R:1 pbc="T T T"
Si      -1.88476931      -1.34311051      -0.39118101       0.00000000
Si       0.52742133       1.25324510      -1.93069768       0.00000000
H       -0.89021593      -0.99235423       2.06455348       0.00000000
Si       1.92881747      -1.48827070       0.32536177       0.00000000
Si      -1.60997329       1.52910485       1.07458077       0.00000000
H       -2.79795414      -1.41336928       0.82212781       0.00000000
Si       0.20235438       2.85303063       1.67795297       0.00000000
Si      -2.76815973       0.08055405      -1.98435087       0.00000000
Si      -0.00886176      -1.84243160       2.95760618       0.00000000
Si       1.55492938      -0.36849609      -3.24918308       0.00000000
