10
Lattice="16.290000149 0.0 0.0 0.0 16.290000149 0.0 0.0 0.0 29.1751946751" Properties=species:S:1:pos:R:3:initial_magmoms:R:1 pbc="T T T"
Si      -2.19569491      -0.18976221      -0.66075981       0.00000000
Si       1.31300822      -0.26995788      -1.91249236       0.00000000
Si       0.51681817       0.91445545       2.09072363       0.00000000
Si       0.79990580      -2.26101944      -0.22324859       0.00000000
Si       0.76947608       2.11098854      -1.16417779       0.00000000
H        2.07959934      -2.22281939       0.59905427       0.00000000
H       -2.26538353      -1.26394111      -1.72314535       0.00000000
H        1.96693770       2.47969640      -0.27599734       0.00000000
H        3.37675576       0.45170541       0.16446057       0.00000000
Si      -2.64599939       1.94505860      -1.54660624       0.00000000
