10
Lattice="16.290000149 0.0 0.0 0.0 16.290000149 0.0 0.0 0.0 29.1751946751" Properties=species:S:1:pos:R:3:initial_magmoms:R:1 pbc="T T T"
Si      -1.35480673      -1.34141635      -1.31046222       0.00000000
Si       1.39144294      -1.28640502       1.35918479       0.00000000
Si      -1.17516061       1.45292140       1.41890642       0.00000000
Si       1.38326536       1.33597549      -1.34555998       0.00000000
Si       2.26989749       0.60155713       2.43023537       0.00000000
Si       0.67797352       2.38480715       2.52210805       0.00000000
Si       0.08224821      -2.67292838      -2.59775933       0.00000000
Si      -2.66357792       0.08112420      -2.61427249       0.00000000
Si       0.01293426      -2.60323976       2.71612310       0.00000000
Si      -2.72844470      -2.59721246       0.11993923       0.00000000
