10
Lattice="16.290000149 0.0 0.0 0.0 16.290000149 0.0 0.0 0.0 29.1751946751" Properties=species:S:1:pos:R:3:initial_magmoms:R:1 pbc="T T T"
Si      -1.32295978      -1.25718777       1.40831582       0.00000000
Si       1.23706261       1.30476988       1.48110793       0.00000000
Si       1.33586146      -1.40844042      -1.34030844       0.00000000
Si      -1.46391715       1.33206540      -1.29234442       0.00000000
Si      -2.53706978      -2.49245848      -0.15556214       0.00000000
Si       2.38400894       2.72679241      -0.03556456       0.00000000
Si       2.67613751      -0.03009464      -2.65400911       0.00000000
Si      -0.15695415       2.67544633      -2.71635650       0.00000000
Si      -0.03732039      -2.72613853      -2.74366448       0.00000000
Si       3.13862691       0.22192470       2.26093171       0.00000000
