10
Lattice="16.290000149 0.0 0.0 0.0 16.290000149 0.0 0.0 0.0 29.1751946751" Properties=species:S:1:pos:R:3:initial_magmoms:R:1 pbc="T T T"
Si      -1.37189494      -1.34627077       1.33607804       0.00000000
Si      -1.37505520       1.34747623      -1.33558206       0.00000000
Si       1.35247726      -1.35549091      -1.36195644       0.00000000
Si       1.35233065       1.36132273       1.36373612       0.00000000
Si       0.00379557       2.69135237      -2.66967619       0.00000000
Si      -0.02187747      -2.74038527       2.65167509       0.00000000
Si      -2.71494029       0.03200985       2.67851627       0.00000000
Si       2.71145423      -2.69364926       0.00691452       0.00000000
Si       2.70570386       0.01687644      -2.70632023       0.00000000
Si      -2.73712728      -2.69788466      -0.01409162       0.00000000
