10
Lattice="16.290000149 0.0 0.0 0.0 16.290000149 0.0 0.0 0.0 29.1751946751" Properties=species:S:1:pos:R:3:initial_magmoms:R:1 pbc="T T T"
Si      -1.47900495       1.11231379       1.40866592       0.00000000
Si       1.57247046      -1.06231978       1.35466264       0.00000000
Si      -1.42159899      -1.42715062      -1.18573826       0.00000000
Si       1.32152300       1.48193389      -1.25861790       0.00000000
H       -2.50742524       0.00127062       1.62336618       0.00000000
Si      -0.36341850       2.48187926      -2.47385228       0.00000000
Si       1.99635255       0.76558114       2.82328359       0.00000000
Si      -0.31126281       0.94796398       3.42382580       0.00000000
Si       0.02342176      -2.65220750      -2.56426621       0.00000000
Si      -2.76122344      -0.05479956      -2.54273492       0.00000000
