10
Lattice="16.290000149 0.0 0.0 0.0 16.290000149 0.0 0.0 0.0 29.1751946751" Properties=species:S:1:pos:R:3:initial_magmoms:R:1 pbc="T T T"
Si       1.35801586       1.36399429      -1.34237988       0.00000000
Si      -1.35027811       1.38694690       1.33677824       0.00000000
Si       1.38372148      -1.34273584       1.35014048       0.00000000
Si      -1.35233065      -1.36132273      -1.36373612       0.00000000
Si      -2.70448211       0.03218904       2.66897598       0.00000000
Si       0.04272867      -2.79155217       2.60239819       0.00000000
Si       2.68954418       2.71708243       0.04119537       0.00000000
Si       2.70910847       0.00293220      -2.70083530       0.00000000
Si      -0.00273672       2.71740008      -2.69324975       0.00000000
Si      -2.72738585      -0.01384650      -2.69931819       0.00000000
