10
Lattice="16.290000149 0.0 0.0 0.0 16.290000149 0.0 0.0 0.0 29.1751946751" Properties=species:S:1:pos:R:3:initial_magmoms:R:1 pbc="T T T"
H        0.83743633       0.93512746       0.81544669       0.00000000
Si      -1.82596241      -0.82758088       1.16630758       0.00000000
Si      -1.28935351       1.29723787      -1.42765898       0.00000000
Si       1.42669450      -1.44594928      -1.12184459       0.00000000
H        1.63841563       0.18568971       2.46836735       0.00000000
H        2.25912980       1.84503800       1.36490313       0.00000000
Si      -2.36999954       2.71806797       0.07136253       0.00000000
Si       2.77482234      -0.05496246      -2.47283115       0.00000000
Si       0.07165971      -2.75183715      -2.51548528       0.00000000
Si      -1.20329344      -1.22816827       3.31631520       0.00000000
