10
Lattice="16.290000149 0.0 0.0 0.0 16.290000149 0.0 0.0 0.0 29.1751946751" Properties=species:S:1:pos:R:3:initial_magmoms:R:1 pbc="T T T"
Si      -1.19746162      -0.36870786      -0.88818045       0.00000000
H        1.40981806      -2.02799099       0.44045791       0.00000000
Si      -0.34710732       1.10651455      -2.52097022       0.00000000
Si       0.07677477       2.93441547      -1.05234927       0.00000000
Si      -1.96693770      -2.47969640       0.27599734       0.00000000
Si       2.00150345       1.18385947       2.17250170       0.00000000
Si      -1.45011952      -1.56524095       2.36672097       0.00000000
Si       0.60784507      -0.55566820       3.08553941       0.00000000
Si      -0.65392948      -2.74965429      -1.63649502       0.00000000
H        3.11489238       0.64925425      -0.75164054       0.00000000
