10
Lattice="16.290000149 0.0 0.0 0.0 16.290000149 0.0 0.0 0.0 29.1751946751" Properties=species:S:1:pos:R:3:initial_magmoms:R:1 pbc="T T T"
H        0.99168797       0.89938720      -0.89646621       0.00000000
Si      -1.11802995      -1.25173990      -1.55343324       0.00000000
Si       1.68494150      -0.99994537       1.21523438       0.00000000
Si      -1.13133888       1.57578058       1.26553242       0.00000000
Si       2.00129331       1.88392223      -1.66003940       0.00000000
Si      -2.39780494      -2.53667882      -0.06888263       0.00000000
Si       2.33512428       0.91983115       2.46938848       0.00000000
Si       0.36341850      -2.48187926       2.47385228       0.00000000
Si       0.68755367       2.57057831       2.37065962       0.00000000
Si      -2.41375285       0.26163369       2.75224199       0.00000000
