10
Lattice="16.290000149 0.0 0.0 0.0 16.290000149 0.0 0.0 0.0 29.1751946751" Properties=species:S:1:pos:R:3:initial_magmoms:R:1 pbc="T T T"
H        1.22588767      -1.96089248       0.22651621       0.00000000
H       -1.98325865      -0.61541992      -1.08555064       0.00000000
Si       1.87967054       0.70910371       1.27192179       0.00000000
Si      -0.75909772      -1.87141151       1.27889466       0.00000000
Si       0.62312509      -0.34482672      -2.32605075       0.00000000
Si      -1.77771143       1.54997722       0.62995080       0.00000000
H       -2.63516816      -0.19424196      -1.12391602       0.00000000
H        2.32990985       1.99205525       0.60605632       0.00000000
H       -0.44023725       2.16446861      -2.21247171       0.00000000
H        2.85254193       0.45118413      -1.19737916       0.00000000
