10
Lattice="16.290000149 0.0 0.0 0.0 16.290000149 0.0 0.0 0.0 29.1751946751" Properties=species:S:1:pos:R:3:initial_magmoms:R:1 pbc="T T T"
Si       1.53417592       0.71939899       1.61108343       0.00000000
Si      -1.21792186      -1.32093982       1.49633738       0.00000000
Si       0.62597584      -1.07500969      -2.04427672       0.00000000
Si      -1.48794490       1.86738788      -0.35188202       0.00000000
H        1.87295906      -1.84113980       0.72614142       0.00000000
H        3.08718309       0.31654728      -1.01144565       0.00000000
Si      -1.87163957       1.22131018      -2.57509021       0.00000000
Si       0.30698505       2.57253311       2.27613199       0.00000000
Si       3.15687171       1.39072618       0.05093989       0.00000000
Si      -2.55080225       0.22615407       2.65295880       0.00000000
