10
Lattice="16.290000149 0.0 0.0 0.0 16.290000149 0.0 0.0 0.0 29.1751946751" Properties=species:S:1:pos:R:3:initial_magmoms:R:1 pbc="T T T"
Si       1.33917974      -1.36117612       1.36078943       0.00000000
Si      -1.35217264      -1.35207001      -1.36160634       0.00000000
Si       1.35845081       1.35190711      -1.36291922       0.00000000
Si      -1.32710477       1.34965909       1.39571214       0.00000000
Si       2.69041896       0.02340873       2.68467224       0.00000000
Si      -2.67068525       2.70720254       0.02681200       0.00000000
Si       0.03490133      -2.71005329      -2.68855254       0.00000000
Si      -2.69125952      -2.70940169       0.01826367       0.00000000
Si      -2.69727053       0.02827944      -2.71597722       0.00000000
Si       2.69978571       2.71510319       0.00046680       0.00000000
