10
Lattice="16.290000149 0.0 0.0 0.0 16.290000149 0.0 0.0 0.0 29.1751946751" Properties=species:S:1:pos:R:3:initial_magmoms:R:1 pbc="T T T"
Si      -0.38369466      -0.64607770      -2.22320818       0.00000000
Si      -1.99163171      -0.59813623       1.17129654       0.00000000
Si       0.76880656       2.04030623       1.01159153       0.00000000
Si       1.48794490      -1.86738788       0.35188202       0.00000000
H       -2.25365636       2.08222040      -0.27147519       0.00000000
Si       1.79492996       0.70514524       2.62801401       0.00000000
H        2.75379195       1.95082526      -0.04078692       0.00000000
Si      -2.15047550      -2.12757176      -1.89020251       0.00000000
Si      -1.06285735      -1.64123380       3.00484083       0.00000000
H       -0.45535437       3.29629782      -1.35285378       0.00000000
