10
Lattice="16.290000149 0.0 0.0 0.0 16.290000149 0.0 0.0 0.0 29.1751946751" Properties=species:S:1:pos:R:3:initial_magmoms:R:1 pbc="T T T"
Si       1.29142234      -1.43801605       1.30862418       0.00000000
Si       1.37717290       1.36853920      -1.30264327       0.00000000
Si      -1.27519750       1.38179926       1.39343647       0.00000000
Si      -1.37930689      -1.36058968      -1.31831035       0.00000000
Si       2.71466336      -0.04761567       2.49045297       0.00000000
Si      -0.00926901       2.70769124      -2.64085110       0.00000000
Si      -2.62026281       0.03101616       2.73494110       0.00000000
Si       2.72021825      -0.00974142      -2.64508150       0.00000000
Si      -0.00566892      -2.72375318      -2.65158757       0.00000000
Si      -2.74605420      -0.00117288      -2.64429377       0.00000000
