10
Lattice="16.290000149 0.0 0.0 0.0 16.290000149 0.0 0.0 0.0 29.1751946751" Properties=species:S:1:pos:R:3:initial_magmoms:R:1 pbc="T T T"
Si      -1.32372541      -1.27236304      -1.44615605       0.00000000
Si       1.33516099       1.36881613      -1.36857921       0.00000000
Si      -1.11237895       1.13531527       1.74887787       0.00000000
Si       1.36102951      -1.39983229       1.36612849       0.00000000
Si       0.74779246       1.96924925       3.00600783       0.00000000
Si       2.42435927       0.28924524       2.75670579       0.00000000
Si      -2.77044033      -0.38674089       2.48213804       0.00000000
Si       0.07921827      -2.61620660      -2.75726012       0.00000000
Si       2.72341109       2.70918992      -0.03142168       0.00000000
Si      -0.03010392      -3.21898548       2.11715635       0.00000000
