10
Lattice="16.290000149 0.0 0.0 0.0 16.290000149 0.0 0.0 0.0 29.1751946751" Properties=species:S:1:pos:R:3:initial_magmoms:R:1 pbc="T T T"
Si      -0.45023931      -1.28295154       0.66586547       0.00000000
H        0.52263207      -1.54087111      -1.80343548       0.00000000
Si       1.55105236      -0.42982794      -2.01813574       0.00000000
Si       2.71879451      -0.59417776      -0.00297587       0.00000000
Si      -1.26236098      -0.29491416       2.60753302       0.00000000
Si      -2.32990985      -1.99205525      -0.60605632       0.00000000
Si       1.55861092      -2.65171880       0.58790935       0.00000000
Si      -2.77019598       1.01426428       1.31825200       0.00000000
Si       0.25288596       1.20137122      -3.14841196       0.00000000
Si      -1.86132800       2.85659814       0.15687502       0.00000000
