10
Lattice="16.290000149 0.0 0.0 0.0 16.290000149 0.0 0.0 0.0 29.1751946751" Properties=species:S:1:pos:R:3:initial_magmoms:R:1 pbc="T T T"
Si      -1.25032267       1.34304535       1.48709585       0.00000000
Si       1.35718507      -1.38578086       1.39827956       0.00000000
Si      -1.44612847      -1.44120889      -1.27597714       0.00000000
Si       1.52236567       1.37334475      -1.28067435       0.00000000
H       -0.64159795       1.15183333      -2.71924484       0.00000000
Si      -0.03842811      -2.62392806      -2.74567757       0.00000000
Si      -2.58622649      -0.06296737       2.83952542       0.00000000
Si      -2.88537442       2.52605774       0.27649332       0.00000000
Si       0.13711293       2.61873155       2.86373791       0.00000000
Si       3.72610947       0.99269632      -0.47625588       0.00000000
