10
Lattice="16.290000149 0.0 0.0 0.0 16.290000149 0.0 0.0 0.0 29.1751946751" Properties=species:S:1:pos:R:3:initial_magmoms:R:1 pbc="T T T"
Si       1.36871351       1.37754757       1.31623891       0.00000000
Si       1.38109391      -1.34697124      -1.33987082       0.00000000
Si      -1.32532183       1.38484549      -1.35763851       0.00000000
Si      -1.35060391      -1.35188268       1.37400579       0.00000000
Si      -2.68213223      -2.70497081      -0.00956946       0.00000000
Si      -2.69358410       0.03634299      -2.69520448       0.00000000
Si       2.70392825       0.02529837       2.68508069       0.00000000
Si       0.00325800       2.71889876       2.67399412       0.00000000
Si       2.70524774       0.03712491      -2.70074777       0.00000000
Si      -2.68998401       2.73202851      -0.00708957       0.00000000
