10
Lattice="16.2900001489832 0.0 0.0 0.0 16.2900001489832 0.0 0.0 0.0 29.20513569536355" Properties=species:S:1:pos:R:3:initial_magmoms:R:1 pbc="T T T"
Si      -1.56561562      -1.51619176      -0.72434578       0.00000000
Si       1.80462251      -1.07836543       0.96525894       0.00000000
Si      -1.00069471       1.75448189       1.13613819       0.00000000
Si       0.86082877       1.47364228      -1.66542286       0.00000000
Si       1.24020658       2.51274881       1.59203036       0.00000000
Si       2.87049351       0.84900223       1.68980915       0.00000000
Si      -3.39697002      -0.02158425      -0.93757247       0.00000000
Si       2.29185641      -2.60421716      -0.79738782       0.00000000
Si      -2.87171526       2.22224924      -0.33460324       0.00000000
Si       2.18300663       0.05113431      -3.03269050       0.00000000
