10
Lattice="16.2900001489832 0.0 0.0 0.0 16.2900001489832 0.0 0.0 0.0 29.20513569536355" Properties=species:S:1:pos:R:3:initial_magmoms:R:1 pbc="T T T"
Si      -1.94127932       0.96317884      -0.82916301       0.00000000
Si       1.16095573       0.61128226       1.91454267       0.00000000
Si       1.54168561       0.08956242      -1.73741352       0.00000000
Si      -0.60383773      -2.21403908       0.49225256       0.00000000
Si       2.53226423      -2.03986640      -1.45657694       0.00000000
Si       0.67632823      -3.39069837      -1.03135016       0.00000000
Si      -0.59162023       0.69525721       3.50712793       0.00000000
Si       2.39785544      -1.33815835       2.49134410       0.00000000
Si      -2.87748192      -2.35631594      -0.21620562       0.00000000
Si       0.38185389      -2.66559788       2.60425116       0.00000000
