10
Lattice="16.2900001489832 0.0 0.0 0.0 16.2900001489832 0.0 0.0 0.0 29.20513569536355" Properties=species:S:1:pos:R:3:initial_magmoms:R:1 pbc="T T T"
Si       1.14864049      -1.52723085      -1.32486178       0.00000000
Si      -1.57700233       1.26424476      -1.18546566       0.00000000
Si      -1.17082747      -1.48287317       1.39802064       0.00000000
Si       1.87950764       1.29707399       0.77037307       0.00000000
Si       0.76626532       3.38404130       0.98800974       0.00000000
Si       2.25165269      -2.82220441       0.31202767       0.00000000
Si       2.50636313      -0.15659023      -2.63056498       0.00000000
Si       0.63187282      -2.86310860       2.18165284       0.00000000
Si      -0.27184752       2.65579684      -2.57075286       0.00000000
Si      -2.93741283       2.43104371       0.35387863       0.00000000
