10
Lattice="16.2900001489832 0.0 0.0 0.0 16.2900001489832 0.0 0.0 0.0 29.20513569536355" Properties=species:S:1:pos:R:3:initial_magmoms:R:1 pbc="T T T"
Si      -0.18925722       2.34774903       0.46167479       0.00000000
Si      -1.63365895      -1.48765005       0.96511291       0.00000000
Si       2.16708185      -1.08952245       0.19985074       0.00000000
Si       0.05465295       0.72139940      -2.34888145       0.00000000
Si       0.98034850       2.78091642      -1.58166253       0.00000000
H        0.56488834      -2.00946763      -2.71999111       0.00000000
H       -0.98212411       1.15268204       3.10657949       0.00000000
Si      -1.88946083      -3.15094052      -0.72329439       0.00000000
Si       0.14913495      -3.30496247      -1.81001749       0.00000000
Si      -0.32060349      -2.63586701       2.73389275       0.00000000
