10
Lattice="16.2900001489832 0.0 0.0 0.0 16.2900001489832 0.0 0.0 0.0 29.20513569536355" Properties=species:S:1:pos:R:3:initial_magmoms:R:1 pbc="T T T"
Si       0.60009103       2.27248760      -0.40808336       0.00000000
Si       0.48601215      -0.05066190       2.34584411       0.00000000
Si      -2.27149391      -0.73195858      -0.45895871       0.00000000
Si       1.23999481      -1.47357712      -1.50286708       0.00000000
H        0.09726759      -3.25164693       0.77878415       0.00000000
Si       0.54059995      -3.55219743      -0.64078988       0.00000000
Si       2.44965764       1.32186835       2.59432141       0.00000000
Si       2.21987090       2.31339179      -2.27770853       0.00000000
H       -1.36037791      -2.02118177      -3.10643346       0.00000000
Si       0.36259911      -2.18414693       3.29065946       0.00000000
