10
Lattice="16.2900001489832 0.0 0.0 0.0 16.2900001489832 0.0 0.0 0.0 29.20513569536355" Properties=species:S:1:pos:R:3:initial_magmoms:R:1 pbc="T T T"
Si      -0.25580187      -1.66329047      -1.68840730       0.00000000
Si       1.63365895       1.48765005      -0.96511291       0.00000000
Si      -2.24997482       0.92166508       0.04345724       0.00000000
Si       1.31305546      -1.14821695       1.76877984       0.00000000
H        0.65153485       2.64033209       2.14146657       0.00000000
H        0.45131445      -2.25049610       2.83254770       0.00000000
Si       1.78279391      -1.81731242      -2.77513040       0.00000000
Si      -3.05279490       0.55421839      -2.27008599       0.00000000
Si       3.80074081       0.39812760      -0.76526217       0.00000000
Si      -3.55424997      -0.48920499       1.55169806       0.00000000
