10
Lattice="16.2900001489832 0.0 0.0 0.0 16.2900001489832 0.0 0.0 0.0 29.20513569536355" Properties=species:S:1:pos:R:3:initial_magmoms:R:1 pbc="T T T"
Si       1.36298431       1.35092971       1.36965369       0.00000000
Si      -1.42201927      -1.32284575       1.34617276       0.00000000
Si      -1.25483500       1.28132254      -1.54025549       0.00000000
Si       1.28516698      -1.32636439      -1.49913174       0.00000000
Si      -2.24637473      -0.52932726      -2.70779212       0.00000000
Si       0.62568262       2.14742927      -2.77782604       0.00000000
Si      -0.53471925      -2.27080973      -2.75454954       0.00000000
Si       2.37501686       0.41229990      -2.73039690       0.00000000
Si       2.65173509      -2.70389567      -0.10314086       0.00000000
Si      -0.04784373       2.75317293       2.62854107       0.00000000
