10
Lattice="16.2900001489832 0.0 0.0 0.0 16.2900001489832 0.0 0.0 0.0 29.20513569536355" Properties=species:S:1:pos:R:3:initial_magmoms:R:1 pbc="T T T"
Si       1.37280718       1.46434069       1.17562353       0.00000000
Si      -1.24781401       1.43469289      -1.40076592       0.00000000
Si       1.36831114      -1.38987910      -1.34220963       0.00000000
Si      -1.75366739      -0.97205689       1.28616497       0.00000000
H        1.07390197      -1.35799957       2.45206319       0.00000000
H        0.93877642      -0.83548153       3.02760880       0.00000000
Si      -3.43515378       0.78390739       1.26963486       0.00000000
Si      -2.61638579       2.71503803       0.05995814       0.00000000
Si       2.60315831      -2.74696644       0.13936691       0.00000000
Si      -2.67897197      -2.68105709      -0.08241689       0.00000000
