10
Lattice="16.2900001489832 0.0 0.0 0.0 16.2900001489832 0.0 0.0 0.0 29.20513569536355" Properties=species:S:1:pos:R:3:initial_magmoms:R:1 pbc="T T T"
Si       0.68663980      -0.81158410       2.10387957       0.00000000
Si       1.57190356      -1.04536189      -1.43642539       0.00000000
Si       0.59842945       2.31549320      -0.53354862       0.00000000
Si      -2.34758450      -0.49169736      -0.50463554       0.00000000
H       -0.17278803      -3.33053940       0.85950714       0.00000000
Si      -1.56423097       3.10912572      -0.84855522       0.00000000
Si       0.58621195      -0.59380309      -3.54842399       0.00000000
Si      -1.98195545       0.92475073       2.99282549       0.00000000
Si      -3.30299301       1.59677839      -0.68407189       0.00000000
Si       1.92888263       1.11648403       3.00222954       0.00000000
