10
Lattice="16.2900001489832 0.0 0.0 0.0 16.2900001489832 0.0 0.0 0.0 29.20513569536355" Properties=species:S:1:pos:R:3:initial_magmoms:R:1 pbc="T T T"
Si      -1.27555588      -1.27553959       1.56479657       0.00000000
Si       1.35073423       1.34584723       1.43883482       0.00000000
Si      -1.47212731       1.44023149      -1.26805195       0.00000000
Si       1.51047397      -1.41250591      -1.26605431       0.00000000
Si      -2.63251289      -2.58732443       0.20848086       0.00000000
Si       2.71331129       2.68729616       0.05109731       0.00000000
Si      -2.68159466       2.77578345       0.26478252       0.00000000
Si       2.76530898      -2.69382845       0.27420118       0.00000000
Si      -0.18549423       2.83845108      -2.68233109       0.00000000
Si       0.04875597       2.66470193       2.92797548       0.00000000
