10
Lattice="16.2900001489832 0.0 0.0 0.0 16.2900001489832 0.0 0.0 0.0 29.20513569536355" Properties=species:S:1:pos:R:3:initial_magmoms:R:1 pbc="T T T"
Si      -1.44063874      -1.35412255       1.27220492       0.00000000
Si       1.44370452      -1.22997646      -1.40394928       0.00000000
Si       1.11850236       0.62718130       1.99260800       0.00000000
Si      -1.30868974       1.53386641      -1.32646806       0.00000000
Si      -2.71130762       0.23047092       2.51243021       0.00000000
Si       0.63921798       2.95735179       2.21833449       0.00000000
Si       0.04122999      -2.53071668      -2.82729078       0.00000000
Si       2.74724337      -2.67652847      -0.02888388       0.00000000
Si       0.06655672      -2.57364083       2.85246560       0.00000000
Si      -2.78242977      -2.65424375      -0.14935506       0.00000000
