10
Lattice="16.2900001489832 0.0 0.0 0.0 16.2900001489832 0.0 0.0 0.0 29.20513569536355" Properties=species:S:1:pos:R:3:initial_magmoms:R:1 pbc="T T T"
Si      -1.27101097       1.42688998      -1.34954012       0.00000000
Si       1.34179102       1.30012120       1.42155998       0.00000000
Si      -1.13911084      -1.68068819       1.18780207       0.00000000
Si       1.46368909      -1.27556240      -1.34188837       0.00000000
H       -1.99023077       2.29998512      -0.36652445       0.00000000
Si       0.63602677      -3.35448570       1.43002947       0.00000000
Si       2.65970090      -2.65769723       0.18337905       0.00000000
Si       0.09342315      -2.57660561      -2.78173076       0.00000000
Si      -2.81263143       0.13655907      -2.58237651       0.00000000
Si      -2.64652229      -2.75519289      -0.22666106       0.00000000
