10
Lattice="16.2900001489832 0.0 0.0 0.0 16.2900001489832 0.0 0.0 0.0 29.20513569536355" Properties=species:S:1:pos:R:3:initial_magmoms:R:1 pbc="T T T"
Si      -0.62315767       0.00669519       1.36233196       0.00000000
H        1.94474909       0.46535643      -1.39755336       0.00000000
Si       2.19719522      -1.02394868      -1.31247880       0.00000000
Si       0.14139720      -2.29153664      -1.63843732       0.00000000
Si       1.22100067      -0.89957290       2.56967227       0.00000000
Si      -0.98932429       2.25994430       1.82900083       0.00000000
Si      -2.76871359      -1.01326407       1.42909490       0.00000000
Si       2.69764031      -1.65679727       0.84802953       0.00000000
H       -1.12857121       2.22984038      -2.38801633       0.00000000
Si       0.22178835       3.62571420       0.33036849       0.00000000
