10
Lattice="16.2900001489832 0.0 0.0 0.0 16.2900001489832 0.0 0.0 0.0 29.20513569536355" Properties=species:S:1:pos:R:3:initial_magmoms:R:1 pbc="T T T"
H       -1.87183505      -0.88795162       0.66593550       0.00000000
Si       0.72853768      -0.34034697       2.26950189       0.00000000
Si       1.85406266       0.78683959      -1.32094829       0.00000000
Si      -0.75250027      -1.96928183      -1.24574506       0.00000000
Si      -1.84814939       1.85114675      -0.10618987       0.00000000
Si      -2.12941253      -0.70123564      -2.73178998       0.00000000
Si       0.63226378       2.09590400      -2.85033363       0.00000000
Si      -3.02858796      -1.20231604       1.61618300       0.00000000
Si      -0.76403359       3.39959271      -1.48727154       0.00000000
Si      -3.46107117       0.71923609      -1.41309049       0.00000000
