10
Lattice="16.2900001489832 0.0 0.0 0.0 16.2900001489832 0.0 0.0 0.0 29.20513569536355" Properties=species:S:1:pos:R:3:initial_magmoms:R:1 pbc="T T T"
Si      -1.47481516       1.37909512      -1.20109041       0.00000000
Si      -1.28663308      -1.39821958       1.41427914       0.00000000
Si       1.50961060       1.23986449       1.37411040       0.00000000
Si       0.74986129      -1.08742267      -2.00840798       0.00000000
Si      -2.49049667      -0.17032824      -2.72042918       0.00000000
Si      -0.15877863       2.91467199      -2.46257704       0.00000000
Si      -0.42637446      -3.13147560      -2.17636671       0.00000000
Si       0.17767503       2.57311955       2.84192839       0.00000000
Si      -2.49610043      -0.06266763       2.94711361       0.00000000
Si      -0.42914376      -0.12891906      -3.85139806       0.00000000
