10
Lattice="16.2900001489832 0.0 0.0 0.0 16.2900001489832 0.0 0.0 0.0 29.20513569536355" Properties=species:S:1:pos:R:3:initial_magmoms:R:1 pbc="T T T"
Si      -0.82937278      -1.23397077      -0.30244839       0.00000000
H        1.42467454       0.91214227       0.75103927       0.00000000
Si       2.29776968      -0.06662610       1.49909962       0.00000000
H       -1.14526846       1.61135794      -2.01118246       0.00000000
Si       0.48648456       2.83361295      -0.65177101       0.00000000
Si       0.11316663      -2.08381356      -2.26774958       0.00000000
Si      -3.00483714      -0.56314531      -0.72224301       0.00000000
Si      -0.29957310      -2.89248501       1.32027657       0.00000000
Si       0.95022829      -1.52092238       2.80121059       0.00000000
Si      -0.74606572       2.97523821       1.46037361       0.00000000
