10
Lattice="16.2900001489832 0.0 0.0 0.0 16.2900001489832 0.0 0.0 0.0 29.20513569536355" Properties=species:S:1:pos:R:3:initial_magmoms:R:1 pbc="T T T"
H        0.62315767      -0.00669519      -1.36233196       0.00000000
Si      -0.36616662       2.25324911       0.46666886       0.00000000
Si      -2.14555592      -1.01995926       0.06676294       0.00000000
Si       1.84415834      -0.90626809       1.20734031       0.00000000
Si      -3.00395748       0.19784205       1.94906314       0.00000000
H        1.35290080       1.35933535       3.05009676       0.00000000
Si      -1.60471162      -3.29162259       0.38171112       0.00000000
Si       0.90160264       2.64707615       2.40112944       0.00000000
Si       3.32079798      -1.66349246      -0.51430244       0.00000000
Si      -2.62990649       2.43243911       1.16303612       0.00000000
