10
Lattice="16.2900001489832 0.0 0.0 0.0 16.2900001489832 0.0 0.0 0.0 29.20513569536355" Properties=species:S:1:pos:R:3:initial_magmoms:R:1 pbc="T T T"
Si      -1.36360333      -1.42024366       1.28455869       0.00000000
Si       1.32683680      -1.40535460      -1.36227355       0.00000000
Si      -1.38880396       1.33895982      -1.38254192       0.00000000
Si       1.23999481       1.36218284       1.50829923       0.00000000
Si       2.63006939       2.70585047       0.11901093       0.00000000
Si      -2.69972543      -0.07407063       2.66426771       0.00000000
Si       2.71192664      -0.02524950      -2.67030733       0.00000000
Si      -2.74646145       2.69193881       0.01556634       0.00000000
Si       2.66522321      -2.77464315       0.03957296       0.00000000
Si       2.71024877      -0.04075758       2.74650937       0.00000000
