10
Lattice="16.2900001489832 0.0 0.0 0.0 16.2900001489832 0.0 0.0 0.0 29.20513569536355" Properties=species:S:1:pos:R:3:initial_magmoms:R:1 pbc="T T T"
Si       1.27707085      -1.36096435       1.45434859       0.00000000
Si      -1.28731726       1.44438544       1.37456308       0.00000000
Si      -1.87382243      -0.88500313      -1.17869854       0.00000000
Si       1.86412988       0.80855416      -1.26750873       0.00000000
Si       2.65311974      -2.63784298       0.03676927       0.00000000
Si      -3.55269754       0.89795368      -1.11830057       0.00000000
Si      -2.70004146       0.04357575       2.74060409       0.00000000
Si       2.68848533       0.01503567       2.78645616       0.00000000
Si       2.85566961       2.61920396      -0.09997210       0.00000000
Si       0.06963975       2.75617029       2.73087878       0.00000000
