10
Lattice="16.2900001489832 0.0 0.0 0.0 16.2900001489832 0.0 0.0 0.0 29.20513569536355" Properties=species:S:1:pos:R:3:initial_magmoms:R:1 pbc="T T T"
Si       1.23484717      -1.35708733       1.48157653       0.00000000
Si      -1.36831114       1.38987910       1.34220963       0.00000000
Si      -1.31580847      -1.33755562      -1.44872076       0.00000000
Si       1.42335505       1.35029440      -1.36139740       0.00000000
Si       2.67064778      -2.66731159       0.04401214       0.00000000
Si      -2.66804138      -2.69236887      -0.07742281       0.00000000
H       -0.29440917       0.03187953       3.79427282       0.00000000
Si       0.00449604       2.85421980       2.51783316       0.00000000
Si      -2.61612515       2.82457200      -0.05855630       0.00000000
Si      -2.68087790       0.05074335      -2.78710451       0.00000000
