10
Lattice="16.2900001489832 0.0 0.0 0.0 16.2900001489832 0.0 0.0 0.0 29.20513569536355" Properties=species:S:1:pos:R:3:initial_magmoms:R:1 pbc="T T T"
H       -0.71921980       0.87309514       0.98301566       0.00000000
Si       1.27101097      -1.42688998       1.34954012       0.00000000
Si      -1.54162045      -1.29033091      -1.23283639       0.00000000
Si       1.38302101       1.43635447      -1.28780046       0.00000000
H       -3.07087680       0.09863595       1.07985989       0.00000000
H       -3.20600235       0.62115400       1.65540550       0.00000000
Si      -0.10581984      -2.60055517      -2.67040079       0.00000000
Si       2.61280199      -0.12676878       2.77110010       0.00000000
Si       2.71985987       0.06784785      -2.69475787       0.00000000
Si       2.73470007      -2.70245238       0.00765175       0.00000000
