10
Lattice="16.2900001489832 0.0 0.0 0.0 16.2900001489832 0.0 0.0 0.0 29.20513569536355" Properties=species:S:1:pos:R:3:initial_magmoms:R:1 pbc="T T T"
Si       1.40657635      -0.04958676       1.87350945       0.00000000
Si      -1.84160081       1.14220594       1.03908952       0.00000000
Si       1.28689372       1.27988902      -1.59290651       0.00000000
Si      -0.17389575      -2.35583408      -0.70986003       0.00000000
H        2.72761391      -0.63716707       1.38814930       0.00000000
H       -3.09503487       0.43272756       0.56360071       0.00000000
H       -1.41084433       1.37860642      -2.62355575       0.00000000
H       -3.04839660       0.81287101      -1.93259144       0.00000000
Si       3.52048080       0.55789993      -1.25675540       0.00000000
Si       0.57651940       0.81129088      -3.80061033       0.00000000
