10
Lattice="16.2900001489832 0.0 0.0 0.0 16.2900001489832 0.0 0.0 0.0 29.20513569536355" Properties=species:S:1:pos:R:3:initial_magmoms:R:1 pbc="T T T"
Si       1.36505314       1.34887717       1.33330206       0.00000000
Si       1.35307999      -1.37644637      -1.32883367       0.00000000
Si      -1.29455654       1.41216382      -1.37532825       0.00000000
Si      -1.31056961      -1.36610873       1.42751783       0.00000000
Si      -2.71906166      -0.03878649      -2.58390394       0.00000000
Si      -2.63086760       2.69446376       0.11448413       0.00000000
Si       2.68255577       0.00762372      -2.66158376       0.00000000
Si      -2.65914704      -2.73665486       0.06036702       0.00000000
Si       0.00931788      -2.68560200      -2.75757520       0.00000000
Si       2.72756505       0.04170240       2.71742106       0.00000000
