10
Lattice="16.2900001489832 0.0 0.0 0.0 16.2900001489832 0.0 0.0 0.0 29.20513569536355" Properties=species:S:1:pos:R:3:initial_magmoms:R:1 pbc="T T T"
Si      -2.07026354      -1.07383681      -0.25747248       0.00000000
Si       1.36632376      -0.62050240      -1.82558383       0.00000000
Si       0.56979163      -0.37424646       2.27966528       0.00000000
Si      -0.86247406       2.10342998      -0.70819534       0.00000000
H        2.65023641      -0.28030203       0.53427875       0.00000000
H        1.84396286       0.39324060       2.62968883       0.00000000
H        2.69687468       0.09984141      -1.96191340       0.00000000
Si      -3.18051990       0.66883483       0.94221609       0.00000000
H       -0.01275507      -3.03948711      -1.61594936       0.00000000
Si      -0.33083361       3.23208264       1.26554615       0.00000000
