10
Lattice="16.2900001489832 0.0 0.0 0.0 16.2900001489832 0.0 0.0 0.0 29.20513569536355" Properties=species:S:1:pos:R:3:initial_magmoms:R:1 pbc="T T T"
Si      -1.43695720      -1.31196403       1.25249145       0.00000000
Si       1.35829279      -1.45547893      -1.25967591       0.00000000
Si      -1.44344062       1.32423040      -1.33855898       0.00000000
Si       1.34174215       1.29707497       1.48309520       0.00000000
Si       2.72763021      -0.06753834      -2.58699092       0.00000000
Si      -0.06455727       2.66284487      -2.72653306       0.00000000
Si       2.72774423       2.67341708       0.14652217       0.00000000
Si      -0.01809819      -2.81588943      -2.62673911       0.00000000
Si      -0.08542476       2.62049087       2.83494252       0.00000000
Si      -1.06888465      -1.18454365       3.54746022       0.00000000
