10
Lattice="16.2900001489832 0.0 0.0 0.0 16.2900001489832 0.0 0.0 0.0 29.20513569536355" Properties=species:S:1:pos:R:3:initial_magmoms:R:1 pbc="T T T"
Si       0.92704762      -0.80385938       0.88795295       0.00000000
Si       2.24551136      -2.09168163      -0.58270087       0.00000000
Si      -0.48179304      -2.17699236       2.19563334       0.00000000
Si      -2.22153248       1.80065100      -1.29153872       0.00000000
Si       2.23458077       0.63972460       2.21907046       0.00000000
Si      -2.41318433      -0.44082207      -2.13574237       0.00000000
Si      -2.29236140       2.39256445       1.00360265       0.00000000
Si      -0.59411260      -1.59871365      -3.07670264       0.00000000
Si       0.58238380      -3.22759963      -1.79652472       0.00000000
Si      -0.50979555       3.11245214      -2.38004333       0.00000000
