10
Lattice="16.2900001489832 0.0 0.0 0.0 16.2900001489832 0.0 0.0 0.0 29.20513569536355" Properties=species:S:1:pos:R:3:initial_magmoms:R:1 pbc="T T T"
Si      -1.10692180      -1.97760602       0.51144034       0.00000000
Si      -0.83655667       1.06598503       1.90026136       0.00000000
Si      -0.81948475       0.97705792      -1.99082648       0.00000000
Si       1.89511346      -1.36953289      -0.46786627       0.00000000
Si      -0.68642803      -2.79578757      -1.65490901       0.00000000
Si      -2.01305306       2.69487101       0.62008344       0.00000000
Si       0.77436145       2.77454541      -1.98878213       0.00000000
Si      -1.15919641      -1.02923479      -3.17188217       0.00000000
Si      -2.97766542       1.74935054      -1.35795119       0.00000000
Si       2.80683219      -0.10124235      -2.46383286       0.00000000
