10
Lattice="16.2900001489832 0.0 0.0 0.0 16.2900001489832 0.0 0.0 0.0 29.20513569536355" Properties=species:S:1:pos:R:3:initial_magmoms:R:1 pbc="T T T"
Si       1.38600208       1.37634211      -1.33657304       0.00000000
Si      -1.42716691       1.32341590       1.35184732       0.00000000
Si      -1.34174215      -1.29707497      -1.48309520       0.00000000
Si       1.36765954      -1.31862664       1.45234219       0.00000000
Si       0.03249855       2.63956646       2.72381698       0.00000000
Si      -2.77869936      -2.60903900      -0.23060375       0.00000000
Si      -2.95156884      -0.15941394       2.44131570       0.00000000
Si      -0.02674818       2.64797210      -2.78482651       0.00000000
Si       2.76556962      -0.02756268      -2.67148138       0.00000000
Si      -0.14131575      -2.52659531       2.90477200       0.00000000
