10
Lattice="16.2900001489832 0.0 0.0 0.0 16.2900001489832 0.0 0.0 0.0 29.20513569536355" Properties=species:S:1:pos:R:3:initial_magmoms:R:1 pbc="T T T"
Si      -1.25709931       1.37391490       1.37751864       0.00000000
Si       1.47481516      -1.37909512       1.20109041       0.00000000
Si       1.31603653       1.53557686      -1.26148663       0.00000000
Si      -1.01568151      -1.54942336      -1.51933877       0.00000000
Si       1.04567140      -1.50801418      -2.65030765       0.00000000
Si       2.22467645      -2.46651779      -0.80731757       0.00000000
Si      -2.43698076      -0.09049095       2.81882713       0.00000000
Si      -2.58027412       2.70563870      -0.09526715       0.00000000
Si       0.25185969       2.58618413       2.73067143       0.00000000
Si       0.18818208      -2.77731471       2.61536955       0.00000000
