10
Lattice="16.2900001489832 0.0 0.0 0.0 16.2900001489832 0.0 0.0 0.0 29.20513569536355" Properties=species:S:1:pos:R:3:initial_magmoms:R:1 pbc="T T T"
Si       1.43827669      -1.38046348      -1.25663858       0.00000000
Si       1.37955124       1.28220220       1.42480175       0.00000000
Si      -1.37888335      -1.33861447       1.38797407       0.00000000
Si      -1.32307381       1.30805443      -1.49755174       0.00000000
Si      -0.06812478       2.60742629       2.72559849       0.00000000
Si       0.11155392      -2.71992503      -2.63665133       0.00000000
Si      -2.66711285       2.69588099      -0.14091478       0.00000000
Si       2.71898021       2.65683386       0.03647721       0.00000000
Si      -2.68359833      -2.70226667      -0.04354486       0.00000000
Si       0.06455727      -2.66284487       2.72653306       0.00000000
