10
Lattice="16.2900001489832 0.0 0.0 0.0 16.2900001489832 0.0 0.0 0.0 29.20513569536355" Properties=species:S:1:pos:R:3:initial_magmoms:R:1 pbc="T T T"
Si       1.28016595      -1.17665929      -1.52360272       0.00000000
Si       0.60383773       2.21403908      -0.49225256       0.00000000
Si       0.98569162      -0.45155880       2.11199859       0.00000000
Si      -2.27364419      -0.14227686      -0.70845818       0.00000000
H        0.09391185      -3.03013551      -0.18367110       0.00000000
H        1.73146412      -2.46440009      -0.87463540       0.00000000
Si       1.76479346       2.82532134       1.42229011       0.00000000
Si      -0.58621195       0.59380309       3.54842399       0.00000000
Si      -1.33744159       3.17721792      -1.32141557       0.00000000
Si       3.13610196       0.17417268      -1.94882950       0.00000000
