10
Lattice="16.2900001489832 0.0 0.0 0.0 16.2900001489832 0.0 0.0 0.0 29.20513569536355" Properties=species:S:1:pos:R:3:initial_magmoms:R:1 pbc="T T T"
Si       1.26382366       1.46150623      -1.32121113       0.00000000
Si      -1.32217786       1.42250797       1.36726763       0.00000000
Si      -1.60423921      -1.34918668      -1.20065233       0.00000000
Si       1.71403219      -1.37586970       1.03021116       0.00000000
Si       0.10884978      -2.65535147       2.23530268       0.00000000
Si       2.55682141       0.01453068      -2.66388804       0.00000000
Si      -2.18300663      -0.05113431       3.03269050       0.00000000
Si      -0.23387553      -2.79935508      -2.51459139       0.00000000
Si      -0.21955662       2.76657960      -2.62177424       0.00000000
Si       2.88424227       2.61863381       0.04225983       0.00000000
