10
Lattice="16.2900001489832 0.0 0.0 0.0 16.2900001489832 0.0 0.0 0.0 29.20513569536355" Properties=species:S:1:pos:R:3:initial_magmoms:R:1 pbc="T T T"
Si      -0.13191642      -0.39943080      -2.30215323       0.00000000
Si      -0.18298557       2.24888339       0.71497093       0.00000000
Si       2.28916856      -0.57368494       0.54625286       0.00000000
Si      -1.42825834      -1.61042941       1.18864902       0.00000000
Si       0.47724488      -2.68179340      -2.11538639       0.00000000
Si       0.53946453       1.80118532       2.90179220       0.00000000
Si       2.09751671      -2.81515800      -0.29795079       0.00000000
Si       2.21833964       0.01822851       2.84139423       0.00000000
Si       1.25944344       3.57769128      -0.71599311       0.00000000
Si      -2.66848121      -0.38845134       2.76870527       0.00000000
