10
Lattice="16.2900001489832 0.0 0.0 0.0 16.2900001489832 0.0 0.0 0.0 29.20513569536355" Properties=species:S:1:pos:R:3:initial_magmoms:R:1 pbc="T T T"
Si       1.35974260       1.33955766      -1.36222391       0.00000000
Si       1.41965722      -1.35831071       1.28204705       0.00000000
Si      -1.29376810      -1.34351939      -1.45528607       0.00000000
Si      -1.37562535       1.38758058       1.33403219       0.00000000
Si       0.05846481      -2.73455508       2.60918682       0.00000000
Si      -2.67885794      -2.72362449      -0.14725229       0.00000000
Si       0.05997978       2.71231598       2.69896341       0.00000000
Si      -2.68411961       2.72876888      -0.13177357       0.00000000
Si       2.76823466       0.01223542       2.64919786       0.00000000
Si       2.74874693      -2.68040712      -0.15017281       0.00000000
