10
Lattice="16.2900001489832 0.0 0.0 0.0 16.2900001489832 0.0 0.0 0.0 29.20513569536355" Properties=species:S:1:pos:R:3:initial_magmoms:R:1 pbc="T T T"
Si       1.04707234      -0.51582285       2.07528774       0.00000000
Si       0.57772486      -1.68725306      -1.60312831       0.00000000
Si       1.04125681       2.14656590      -0.46120750       0.00000000
Si      -2.29868192      -0.10907784       0.82554157       0.00000000
H       -1.24926382       0.29286162      -2.29718836       0.00000000
H        1.04488948      -0.92299141      -2.82340649       0.00000000
H       -1.33423246       2.65989638       1.45400689       0.00000000
Si      -2.03862836       1.54913014       2.48833597       0.00000000
Si       1.66146599      -2.80751637       1.53838052       0.00000000
Si      -2.56632662       1.00532107      -2.53897768       0.00000000
