10
Lattice="16.2900001489832 0.0 0.0 0.0 16.2900001489832 0.0 0.0 0.0 29.20513569536355" Properties=species:S:1:pos:R:3:initial_magmoms:R:1 pbc="T T T"
H       -0.86174101      -1.10227915       1.06376786       0.00000000
Si       1.51374826      -1.61560963      -0.85144653       0.00000000
Si       1.11804787       0.88964578       1.90724139       0.00000000
Si      -1.31305546       1.14821695      -1.76877984       0.00000000
Si      -1.56613690      -2.21304539       2.09809695       0.00000000
Si       2.13267053      -0.79330672      -2.95713681       0.00000000
Si       0.32060349       2.63586701      -2.73389275       0.00000000
Si       0.47249145      -3.76217553      -0.39023902       0.00000000
Si      -1.56885733      -0.51507351      -3.45718714       0.00000000
H       -0.66152062       3.78854904       0.37268674       0.00000000
