10
Lattice="16.2900001489832 0.0 0.0 0.0 16.2900001489832 0.0 0.0 0.0 29.20513569536355" Properties=species:S:1:pos:R:3:initial_magmoms:R:1 pbc="T T T"
H       -0.79087951      -1.47067750      -0.40752846       0.00000000
Si       1.77640823       0.85571371      -1.31735606       0.00000000
Si       0.55948006      -0.07480368       2.31085636       0.00000000
Si      -1.79921423       1.52930521      -0.35066606       0.00000000
H        0.97430491      -1.57152889      -1.76033955       0.00000000
H       -2.24254658       1.82985572       1.06890797       0.00000000
H        1.10943046      -2.09404694      -2.33588516       0.00000000
Si      -1.60533064      -2.68886000      -1.31160264       0.00000000
Si       1.23546619       3.17791839      -0.94040537       0.00000000
Si       0.22340106       2.17836398       3.00550051       0.00000000
