10
Lattice="16.2900001489832 0.0 0.0 0.0 16.2900001489832 0.0 0.0 0.0 29.20513569536355" Properties=species:S:1:pos:R:3:initial_magmoms:R:1 pbc="T T T"
Si       1.29171556       1.33336909      -1.43010832       0.00000000
Si      -1.31823568       1.38600208       1.37237853       0.00000000
Si       1.39696525      -1.35106003       1.35088355       0.00000000
Si      -1.33033915      -1.32006016      -1.45329428       0.00000000
Si       2.73327632      -2.63335997      -0.13892883       0.00000000
Si      -2.68757309      -0.00193851       2.69969354       0.00000000
Si      -2.67214646       2.73592182      -0.02380219       0.00000000
Si       0.00900837      -2.71155197       2.71368280       0.00000000
Si      -2.73509103      -2.69509907      -0.11705418       0.00000000
Si       2.70072564       2.73232173      -0.11912775       0.00000000
