10
Lattice="16.2900001489832 0.0 0.0 0.0 16.2900001489832 0.0 0.0 0.0 29.20513569536355" Properties=species:S:1:pos:R:3:initial_magmoms:R:1 pbc="T T T"
Si       1.63464613       1.20106171      -1.19412469       0.00000000
Si       1.30658833      -1.31468446       1.47135182       0.00000000
Si      -1.35617509       1.38904831       1.38817851       0.00000000
Si      -1.35452980      -1.34796493      -1.45176977       0.00000000
Si       3.38183661      -0.63711820      -1.27008462       0.00000000
Si       0.20478159       2.64591956      -2.59883068       0.00000000
Si       2.72399428      -2.54104454       0.05055409       0.00000000
Si      -2.67568139      -2.59672376       0.07869032       0.00000000
Si      -2.71182890       2.75328696       0.00505833       0.00000000
Si       2.71559841       0.08426817       2.78233239       0.00000000
