10
Lattice="16.2900001489832 0.0 0.0 0.0 16.2900001489832 0.0 0.0 0.0 29.20513569536355" Properties=species:S:1:pos:R:3:initial_magmoms:R:1 pbc="T T T"
Si      -1.15675291      -0.31436442       0.95024750       0.00000000
Si       1.87183505       0.88795162      -0.66593550       0.00000000
Si       1.11933478      -1.08133021      -1.91168057       0.00000000
Si      -0.08900856      -2.34406586       1.51857944       0.00000000
Si       0.02368566       2.73909837      -0.77212538       0.00000000
Si      -2.87405287       0.32210217      -0.57630494       0.00000000
Si      -1.58923612       1.60718770      -2.07902599       0.00000000
Si      -0.91111600       1.28922319       2.64747476       0.00000000
Si       2.60037272       0.54760464       1.60356639       0.00000000
Si       0.30056679      -3.01246086      -0.70200385       0.00000000
