10
Lattice="16.2900001489832 0.0 0.0 0.0 16.2900001489832 0.0 0.0 0.0 29.20513569536355" Properties=species:S:1:pos:R:3:initial_magmoms:R:1 pbc="T T T"
Si      -1.32103756       0.58758031       0.48536015       0.00000000
Si       1.32488200       2.16016805      -0.50971723       0.00000000
Si      -1.82666288      -1.04882840       2.07855871       0.00000000
Si       0.79286689       1.19506699      -2.64490470       0.00000000
Si      -0.36732321       2.80504029       1.04215606       0.00000000
Si      -2.72761391       0.63716707      -1.38814930       0.00000000
Si       2.89450497       0.95737960       0.77454940       0.00000000
Si       0.98212411      -1.15268204      -3.10657949       0.00000000
Si      -0.65153485      -2.64033209      -2.14146657       0.00000000
Si       0.23511357      -1.82578322       2.98806505       0.00000000
