10
Lattice="16.2900001489832 0.0 0.0 0.0 16.2900001489832 0.0 0.0 0.0 29.20513569536355" Properties=species:S:1:pos:R:3:initial_magmoms:R:1 pbc="T T T"
Si       1.36961434      -1.30603447       1.40508828       0.00000000
Si       1.18016164       1.54906498      -1.36901994       0.00000000
Si      -1.29435454       1.51734835       1.30949987       0.00000000
Si      -1.51114186      -1.23422815      -1.43338806       0.00000000
Si      -0.88161481       2.32601980      -2.27852628       0.00000000
Si      -1.82415422       3.17586259      -0.31322508       0.00000000
Si       0.04043178      -2.62674623      -2.63167478       0.00000000
Si      -0.09638793      -2.57683367       2.72284153       0.00000000
Si      -2.59193450       0.64102780      -2.65416273       0.00000000
Si       2.60100803       0.21815568       2.73702062       0.00000000
