10
Lattice="16.2900001489832 0.0 0.0 0.0 16.2900001489832 0.0 0.0 0.0 29.20513569536355" Properties=species:S:1:pos:R:3:initial_magmoms:R:1 pbc="T T T"
Si      -0.68663980       0.81158410      -2.10387957       0.00000000
Si      -2.03041820      -0.51917859       1.12579957       0.00000000
Si       1.25059960      -2.03365991      -0.48185553       0.00000000
Si       1.24224283       1.92806813       0.89834997       0.00000000
H       -0.85942783      -2.51895530      -1.24437242       0.00000000
H        2.68439654      -1.61604946      -0.18010807       0.00000000
Si      -2.66859524       1.73633483       0.88894592       0.00000000
Si       0.88526377      -0.23377779      -3.54030496       0.00000000
Si       1.33426504       1.48296016       3.24401886       0.00000000
Si      -1.53779230      -1.19379637       3.31405277       0.00000000
