10
Lattice="16.2900001489832 0.0 0.0 0.0 16.2900001489832 0.0 0.0 0.0 29.20513569536355" Properties=species:S:1:pos:R:3:initial_magmoms:R:1 pbc="T T T"
Si       1.04640445      -1.70234786      -1.18759764       0.00000000
Si      -0.97117723       1.21622721      -1.87128986       0.00000000
Si       2.05579802       1.26758795       0.32595852       0.00000000
Si      -1.12966264      -1.82392013       1.44974294       0.00000000
H       -0.14139720       2.29153664       1.63843732       0.00000000
H        1.80335189       2.75689307       0.24088396       0.00000000
Si       2.32570703      -0.38271124      -2.63491655       0.00000000
Si       2.55624311       0.63473937       2.48646684       0.00000000
Si      -2.21881205      -2.94395538      -0.46001009       0.00000000
Si      -0.59903218      -2.90305119      -2.32963526       0.00000000
