10
Lattice="16.2900001489832 0.0 0.0 0.0 16.2900001489832 0.0 0.0 0.0 29.20513569536355" Properties=species:S:1:pos:R:3:initial_magmoms:R:1 pbc="T T T"
Si       1.25343406       0.70947838       0.47548881       0.00000000
H       -0.80627356       0.67354264       2.09541008       0.00000000
H        0.04663827       0.38014344      -2.49619215       0.00000000
Si      -1.28391265      -0.34020036      -2.35986258       0.00000000
Si      -2.08044479      -0.09394443       1.74538652       0.00000000
Si      -2.65023641       0.28030203      -0.53427875       0.00000000
Si       0.93841804       2.95872015      -0.20052246       0.00000000
Si       3.09503487      -0.43272756      -0.56360071       0.00000000
Si       1.30375387       1.15883803       2.85792696       0.00000000
Si      -1.55701450      -2.43374883       1.98536512       0.00000000
