10
Lattice="16.2900001489832 0.0 0.0 0.0 16.2900001489832 0.0 0.0 0.0 29.20513569536355" Properties=species:S:1:pos:R:3:initial_magmoms:R:1 pbc="T T T"
Si       1.45450153      -0.52372350       1.70260100       0.00000000
Si       1.18105759      -0.68826880      -1.87867876       0.00000000
Si      -0.03034827       2.31880007      -0.26819076       0.00000000
Si      -0.28813752       0.15224634       3.26694489       0.00000000
Si      -1.25195167       2.19364400      -2.21775039       0.00000000
H       -2.75460645      -1.84845890       0.67916543       0.00000000
Si      -0.25883181       0.45121671      -3.41603711       0.00000000
Si      -3.04205979       1.50578245      -0.94317986       0.00000000
Si       3.40004883       0.64715284       1.00918346       0.00000000
Si       3.42430464       0.23737788      -1.35616968       0.00000000
