10
Lattice="16.2900001489832 0.0 0.0 0.0 16.2900001489832 0.0 0.0 0.0 29.20513569536355" Properties=species:S:1:pos:R:3:initial_magmoms:R:1 pbc="T T T"
Si      -0.38957535       0.66839500       2.22058329       0.00000000
Si      -1.86334796      -0.87317659      -1.21391147       0.00000000
Si       0.81876799       1.93113065      -1.20967672       0.00000000
Si       1.68148640      -1.75596428       0.01653011       0.00000000
H       -0.30056679       3.01246086       0.70200385       0.00000000
Si      -1.45731970       2.69809643       1.65225135       0.00000000
Si       2.18733977       0.65078551      -2.67040079       0.00000000
Si      -0.60633010      -2.15778971      -2.73617075       0.00000000
Si       3.43515378      -0.78390739      -1.26963486       0.00000000
Si       0.75618181      -3.46496448      -1.35205176       0.00000000
