10
Lattice="16.2900001489832 0.0 0.0 0.0 16.2900001489832 0.0 0.0 0.0 29.20513569536355" Properties=species:S:1:pos:R:3:initial_magmoms:R:1 pbc="T T T"
Si      -1.93062566      -1.26949600      -0.45136537       0.00000000
Si       1.46106640      -0.47340369      -1.80385521       0.00000000
Si      -0.44079111       2.20998287      -0.87808161       0.00000000
Si       0.97376734      -0.32130396       2.35019568       0.00000000
Si       1.79654267       3.00493488      -0.81523216       0.00000000
Si      -2.99226126      -1.24929640       1.64214637       0.00000000
Si       1.29508759       1.96151150       3.00655190       0.00000000
Si       3.06282954       1.29472921      -1.95718217       0.00000000
Si      -1.49201740       3.53481763       0.73821821       0.00000000
Si       2.68514588      -1.92173132       2.09362856       0.00000000
