10
Lattice="16.2900001489832 0.0 0.0 0.0 16.2900001489832 0.0 0.0 0.0 29.20513569536355" Properties=species:S:1:pos:R:3:initial_magmoms:R:1 pbc="T T T"
Si       1.40144500       1.38849934       1.28049917       0.00000000
Si      -1.33153484       1.37224029      -1.39469126       0.00000000
Si       1.34358292      -1.33120252      -1.43151893       0.00000000
Si      -1.31527416      -1.38378664       1.43902465       0.00000000
Si      -2.65717595      -2.67636557      -0.02327649       0.00000000
Si       0.32479002      -2.73742050       2.59750477       0.00000000
Si      -2.66497886       2.70111008       0.02143657       0.00000000
Si       0.04103451       2.55529829       2.81984347       0.00000000
Si      -2.68011227       0.00169416      -2.76184207       0.00000000
Si       2.97844734       0.12425458       2.46596484       0.00000000
