10
Lattice="16.2900001489832 0.0 0.0 0.0 16.2900001489832 0.0 0.0 0.0 29.20513569536355" Properties=species:S:1:pos:R:3:initial_magmoms:R:1 pbc="T T T"
Si       1.73944622      -1.55447326      -0.36862722       0.00000000
Si      -0.40536036       0.37349712       2.32294729       0.00000000
Si       0.53287848       1.86997799      -1.41615703       0.00000000
Si      -2.31795299      -0.00539199      -0.68491884       0.00000000
Si      -2.65403198       2.24777567       0.00972531       0.00000000
Si      -1.39593898       2.50292594       2.04211070       0.00000000
Si       0.17736552      -2.83239120       2.22008680       0.00000000
Si       2.64500732      -0.66544651      -2.40019487       0.00000000
Si      -2.26129637      -0.97733485       2.74817406       0.00000000
Si       1.16828623       0.88014871      -3.47272428       0.00000000
