10
Lattice="16.2900001489832 0.0 0.0 0.0 16.2900001489832 0.0 0.0 0.0 29.20513569536355" Properties=species:S:1:pos:R:3:initial_magmoms:R:1 pbc="T T T"
Si      -1.27607716       1.17999874      -1.59132943       0.00000000
Si      -1.23009049      -1.47144313       1.37354674       0.00000000
Si       1.48975309      -1.31386996      -1.31904995       0.00000000
Si       0.63772093       1.86759965       1.39527536       0.00000000
Si      -2.64482813       2.46689246      -0.26141517       0.00000000
Si       2.66139506       2.56438811       0.14862494       0.00000000
Si      -2.59434542      -0.08902485       2.73511937       0.00000000
Si       0.38713185      -2.65794158       2.66999192       0.00000000
Si       0.12341304      -2.73466748      -2.68684328       0.00000000
Si       0.09511731       2.64547973      -2.81648488       0.00000000
