10
Lattice="16.2900001489832 0.0 0.0 0.0 16.2900001489832 0.0 0.0 0.0 29.20513569536355" Properties=species:S:1:pos:R:3:initial_magmoms:R:1 pbc="T T T"
Si       1.32929659       1.35091342       1.39381510       0.00000000
Si      -1.34360899      -1.35799957       1.38642620       0.00000000
Si       1.40124952      -1.37701000      -1.31353018       0.00000000
Si      -1.36530890       1.36171369      -1.36872789       0.00000000
Si       2.74336635      -0.06286311       2.62139457       0.00000000
Si       0.03383433      -2.69345378      -2.68194266       0.00000000
Si      -2.69439860       2.68381010       0.06349196       0.00000000
Si       2.70860348       2.68991885       0.01010498       0.00000000
Si       0.04632876      -2.74321974       2.69557561       0.00000000
Si      -2.71777475      -2.74898640       0.05473042       0.00000000
