10
Lattice="16.2900001489832 0.0 0.0 0.0 16.2900001489832 0.0 0.0 0.0 29.20513569536355" Properties=species:S:1:pos:R:3:initial_magmoms:R:1 pbc="T T T"
Si       2.03859578      -0.15402195      -1.08672310       0.00000000
Si      -1.53070615       0.50730318      -1.72362870       0.00000000
Si      -0.52497783      -2.24178095       0.52797044       0.00000000
Si       0.25580187       1.66329047       1.68840730       0.00000000
H        0.79208497      -2.95424040       0.76975976       0.00000000
H        2.45434916       1.14147289      -1.99669672       0.00000000
Si      -2.79699303       2.21750885      -0.58167869       0.00000000
Si      -1.99417295       2.58495554       1.73186455       0.00000000
Si      -3.13246929      -1.26082972      -1.57030174       0.00000000
Si       1.88946083       3.15094052       0.72329439       0.00000000
