10
Lattice="16.28999089631971 0.0 0.0 0.0 16.28999089631971 0.0 0.0 0.0 34.51530692428229" Properties=species:S:1:pos:R:3:initial_magmoms:R:1 pbc="T T T"
Si      -1.32015626      -1.73977200       0.67487817       0.00000000
Si      -0.87133255       1.79271191       1.30930438       0.00000000
Si       2.21570064      -0.63443034       0.72361381       0.00000000
Si      -0.55197688       0.26456589      -2.34303840       0.00000000
Si      -0.65129701      -3.49161489      -0.68854624       0.00000000
Si       3.46172274       1.17169083      -0.16477617       0.00000000
Si       0.39104145       3.61545866       0.62821345       0.00000000
Si       0.87900840       1.94707269      -3.01750239       0.00000000
Si      -0.98346965      -2.24443620       2.98312513       0.00000000
Si      -3.59310878      -1.55246958       0.24719877       0.00000000
