10
Lattice="16.28999089631971 0.0 0.0 0.0 16.28999089631971 0.0 0.0 0.0 34.51530692428229" Properties=species:S:1:pos:R:3:initial_magmoms:R:1 pbc="T T T"
Si       1.15377835      -1.47262089      -1.39548915       0.00000000
Si       1.25894007      -0.82976373       1.90017225       0.00000000
Si      -1.57613148       1.25476983      -1.37333031       0.00000000
Si      -1.23873300      -1.77945770       1.32286891       0.00000000
Si       2.50411346      -0.10951767      -2.76039773       0.00000000
Si       1.69042796       1.08027135       3.16495187       0.00000000
Si       2.33121140      -2.96161064       0.08307839       0.00000000
Si      -0.21024756       2.60638371      -2.75490979       0.00000000
Si       2.62894373       2.76855066       0.19818700       0.00000000
Si      -0.21321261      -2.82265694      -2.76146770       0.00000000
