10
Lattice="16.28999089631971 0.0 0.0 0.0 16.28999089631971 0.0 0.0 0.0 34.51530692428229" Properties=species:S:1:pos:R:3:initial_magmoms:R:1 pbc="T T T"
Si       1.27992159       1.04358627       1.62674184       0.00000000
Si      -2.28382542       0.08521299       0.61154255       0.00000000
Si       0.82002231      -2.16626375       0.56991707       0.00000000
Si       0.62766999      -0.00506619       3.62759530       0.00000000
Si      -2.70016524      -2.20725265       1.21676879       0.00000000
Si      -1.07162136      -3.55847624       0.13702585       0.00000000
Si       0.79231302       3.32047215       1.59664448       0.00000000
Si       3.54405240       0.98924283       0.97043291       0.00000000
Si      -2.45702070       1.86271263       2.24052789       0.00000000
Si      -2.68117110      -1.09232595      -2.52072330       0.00000000
