10
Lattice="16.28999089631971 0.0 0.0 0.0 16.28999089631971 0.0 0.0 0.0 34.51530692428229" Properties=species:S:1:pos:R:3:initial_magmoms:R:1 pbc="T T T"
Si       2.19519153      -0.28066693      -0.82436405       0.00000000
Si      -0.82002231       2.16626375      -0.56991707       0.00000000
Si      -1.89164367      -1.39221249      -0.43289122       0.00000000
Si       0.46990134       0.03816258       2.35384170       0.00000000
Si       0.45989928       3.20985002       1.05682477       0.00000000
Si      -3.52018755      -0.04098890       0.64685173       0.00000000
Si       3.22988346      -1.56320862       0.80427613       0.00000000
Si      -0.19235232       2.16119756       3.05767823       0.00000000
Si      -3.10384773       2.25147674       0.04162548       0.00000000
Si      -1.72491552      -2.05655127      -2.75090601       0.00000000
