10
Lattice="16.28999089631971 0.0 0.0 0.0 16.28999089631971 0.0 0.0 0.0 34.51530692428229" Properties=species:S:1:pos:R:3:initial_magmoms:R:1 pbc="T T T"
Si      -2.21685723       0.26540320      -0.66024368       0.00000000
Si       1.18328931       1.45517104      -1.40929528       0.00000000
Si       0.74960064      -2.05686241      -1.06752452       0.00000000
Si      -1.91464515       2.17049752       0.84662644       0.00000000
Si       0.98675046       1.06606810       2.88610255       0.00000000
Si       0.33340743      -1.41137116      -3.33659659       0.00000000
Si       3.53222586      -0.25530502       0.94616864       0.00000000
Si       3.04774497      -1.99399930      -0.51634928       0.00000000
Si       3.15506349       1.92435562      -0.19794540       0.00000000
Si      -0.60457077      -3.79547782      -0.21768816       0.00000000
