10
Lattice="16.28999089631971 0.0 0.0 0.0 16.28999089631971 0.0 0.0 0.0 34.51530692428229" Properties=species:S:1:pos:R:3:initial_magmoms:R:1 pbc="T T T"
Si      -1.34732961      -1.34915409       1.38814774       0.00000000
Si       1.37114559       1.36080144       1.38566264       0.00000000
Si       1.29976281      -1.51554015      -1.36955434       0.00000000
Si      -1.47665592       1.35283563      -1.52024825       0.00000000
Si       2.41803873       0.19168443      -2.64515899       0.00000000
Si      -2.70440064       2.70966231       0.01356797       0.00000000
Si      -2.71371852      -2.70936909       0.00438690       0.00000000
Si       2.73816981      -2.70663237       0.04427281       0.00000000
Si       2.73325023       2.71930599       0.02145128       0.00000000
Si      -2.70381420       0.00390960       2.74881093       0.00000000
