10
Lattice="16.28999089631971 0.0 0.0 0.0 16.28999089631971 0.0 0.0 0.0 34.51530692428229" Properties=species:S:1:pos:R:3:initial_magmoms:R:1 pbc="T T T"
Si      -1.35736425      -1.35694071      -1.35659038       0.00000000
Si       1.35790182       1.35817875      -1.35669393       0.00000000
Si      -1.35562122       1.35767376       1.36159510       0.00000000
Si       1.36102950      -1.35606105       1.36228541       0.00000000
Si      -2.71373481      -2.71334385       0.00051773       0.00000000
Si       2.71327869      -2.71463402       0.00062128       0.00000000
Si       0.00021177      -2.71466986      -2.71394010       0.00000000
Si      -2.71539639       0.00091224      -2.71394010       0.00000000
Si       2.71534752       0.00073305      -2.71407816       0.00000000
Si       0.00021177       2.71544526      -2.71442331       0.00000000
