10
Lattice="16.28999089631971 0.0 0.0 0.0 16.28999089631971 0.0 0.0 0.0 34.51530692428229" Properties=species:S:1:pos:R:3:initial_magmoms:R:1 pbc="T T T"
Si       1.35562122      -1.35767376      -1.36159510       0.00000000
Si      -1.35987291       1.35703845      -1.35907548       0.00000000
Si      -1.37595114      -1.33314102       1.36801495       0.00000000
Si       1.34159553       1.36265850       1.39562722       0.00000000
Si      -2.71728603       2.71282257      -0.00037967       0.00000000
Si       2.71665072      -2.71373481       0.00069031       0.00000000
Si       2.71352304       0.00050499      -2.71828903       0.00000000
Si      -0.00174303      -2.71461447      -2.71818549       0.00000000
Si       2.71697652       2.71591767       0.00006903       0.00000000
Si      -0.00174303       2.71547784      -2.71801291       0.00000000
