10
Lattice="16.28999089631971 0.0 0.0 0.0 16.28999089631971 0.0 0.0 0.0 34.51530692428229" Properties=species:S:1:pos:R:3:initial_magmoms:R:1 pbc="T T T"
Si      -1.26206775       1.46797335      -1.46075764       0.00000000
Si       1.46191347      -1.24958961      -1.48201908       0.00000000
Si       1.66123791       1.07103492       1.43438793       0.00000000
Si      -1.00515816      -1.89423378       1.29384152       0.00000000
Si       2.79818217      -2.53221534       0.04262643       0.00000000
Si       0.88612713      -3.53820429       1.23236972       0.00000000
Si      -2.60366328       0.10531485      -2.85638485       0.00000000
Si       0.11298744      -2.60841996      -2.85569454       0.00000000
Si      -2.76183918      -2.72947095      -0.13723294       0.00000000
Si      -2.66005926       2.84819247       0.15231613       0.00000000
