10
Lattice="16.28999089631971 0.0 0.0 0.0 16.28999089631971 0.0 0.0 0.0 34.51530692428229" Properties=species:S:1:pos:R:3:initial_magmoms:R:1 pbc="T T T"
Si       1.28675199      -1.35096228      -1.46431271       0.00000000
Si      -1.72257206      -1.03866669       1.26295030       0.00000000
Si       1.68409767      -0.17342334       1.66795314       0.00000000
Si      -0.39270792       2.34369117      -0.22873307       0.00000000
Si       0.44623686       0.64630575      -3.25134373       0.00000000
Si      -0.85165097      -3.18461518       1.35607265       0.00000000
Si       1.26775785      -2.46588898       2.27317938       0.00000000
Si      -1.03636328      -3.54980996      -1.01078133       0.00000000
Si       1.68955482       3.45910005      -0.12428969       0.00000000
Si      -3.65740052      -1.21257873      -0.08670250       0.00000000
