10
Lattice="16.28999089631971 0.0 0.0 0.0 16.28999089631971 0.0 0.0 0.0 34.51530692428229" Properties=species:S:1:pos:R:3:initial_magmoms:R:1 pbc="T T T"
Si      -0.87092109       2.14594849      -0.09312235       0.00000000
Si      -1.61053596      -1.21703146       1.19654281       0.00000000
Si      -0.18471231      -0.36519478      -2.36685398       0.00000000
Si       2.11940882       0.71872620       0.91710673       0.00000000
Si       0.85165097       3.18461518      -1.35607265       0.00000000
Si      -0.60945030      -3.31373365       1.17793905       0.00000000
Si      -2.80574955       1.97203645      -1.44277515       0.00000000
Si      -2.50057269       0.11341424      -2.85338202       0.00000000
Si       3.74795270      -0.63249739      -0.16263622       0.00000000
Si      -1.36810818      -0.78536275       3.57292302       0.00000000
