10
Lattice="16.28999089631971 0.0 0.0 0.0 16.28999089631971 0.0 0.0 0.0 34.51530692428229" Properties=species:S:1:pos:R:3:initial_magmoms:R:1 pbc="T T T"
Si      -1.29986055      -0.46737639       1.79745464       0.00000000
Si       0.71785143       2.15809920      -0.27784838       0.00000000
Si       1.97785035      -1.16242182       0.62924891       0.00000000
Si      -1.41157737      -0.59367276      -1.83652599       0.00000000
Si      -1.43005023      -2.75977035       1.24855741       0.00000000
Si       0.50764527      -0.92675439       3.38736863       0.00000000
Si       1.79608653       2.05008021      -2.37689794       0.00000000
Si      -3.08428344       1.02641661       1.61276313       0.00000000
Si       0.97311573      -3.21921351       1.40611987       0.00000000
Si      -2.55678066      -2.49302160      -1.06093210       0.00000000
