10
Lattice="16.28999089631971 0.0 0.0 0.0 16.28999089631971 0.0 0.0 0.0 34.51530692428229" Properties=species:S:1:pos:R:3:initial_magmoms:R:1 pbc="T T T"
Si       0.71687403      -1.58252463       1.56226721       0.00000000
Si      -0.53721162       2.09556189       0.89553465       0.00000000
Si      -2.08937169      -0.77546916      -0.78515464       0.00000000
Si       1.93259673       0.27043029      -1.37591896       0.00000000
Si      -1.85318298       0.23591178      -2.98302158       0.00000000
Si       1.44552573       2.51429634       2.13863864       0.00000000
Si      -1.60586820      -3.04153848      -1.13624454       0.00000000
Si      -0.60035166      -3.45673800       1.01899598       0.00000000
Si       0.18731871      -0.76549968       3.65596690       0.00000000
Si      -1.25149554       3.46180419      -0.95562584       0.00000000
