10
Lattice="16.28999089631971 0.0 0.0 0.0 16.28999089631971 0.0 0.0 0.0 34.51530692428229" Properties=species:S:1:pos:R:3:initial_magmoms:R:1 pbc="T T T"
Si       1.06103286       1.90650015      -0.79471539       0.00000000
Si       0.05942592       0.22949352       2.31311362       0.00000000
Si      -2.30337342      -0.12316869      -0.44510965       0.00000000
Si       1.05006969      -1.24590807      -1.77432937       0.00000000
Si       0.98329698       0.87418656      -2.90232475       0.00000000
Si       3.05347905       1.12746348       0.21696334       0.00000000
Si      -1.56592512      -1.43045748       2.49815028       0.00000000
Si      -2.13695478      -2.25909720      -1.35020505       0.00000000
Si      -1.49465637      -3.09798333       0.77977025       0.00000000
Si      -2.87239941       1.72010997      -1.69546185       0.00000000
