10
Lattice="16.28999089631971 0.0 0.0 0.0 16.28999089631971 0.0 0.0 0.0 34.51530692428229" Properties=species:S:1:pos:R:3:initial_magmoms:R:1 pbc="T T T"
Si       1.79447382       0.39710133      -1.40094258       0.00000000
Si      -1.83977631       1.18289835      -0.84500422       0.00000000
Si       0.81849105       0.53437716       2.16507738       0.00000000
Si      -0.37893798      -2.34652563       0.03917490       0.00000000
Si      -1.45717308      -2.23850664       2.13822446       0.00000000
Si      -3.46512735      -0.47705265      -0.65996755       0.00000000
Si       1.86046461      -3.03619536       0.14568919       0.00000000
Si       2.56329666      -1.81354941      -1.70799092       0.00000000
Si      -3.28662153      -0.87276933       1.64510399       0.00000000
Si       1.15427682       2.08086831      -2.94115449       0.00000000
