10
Lattice="16.28999089631971 0.0 0.0 0.0 16.28999089631971 0.0 0.0 0.0 34.51530692428229" Properties=species:S:1:pos:R:3:initial_magmoms:R:1 pbc="T T T"
Si       1.33522614       1.36516716       1.38553839       0.00000000
Si      -1.42509807       1.08683622      -1.55761454       0.00000000
Si      -1.38214134      -1.35294966       1.38212137       0.00000000
Si       1.44739908      -1.39447287      -1.46241437       0.00000000
Si      -0.22491603      -2.43750528      -2.84805772       0.00000000
Si       2.67511122       2.69965147      -0.00543271       0.00000000
Si      -2.17587159      -0.72540999      -3.03488918       0.00000000
Si       2.69047269      -2.72117934       0.02589340       0.00000000
Si      -2.72438847       2.70472644      -0.00246785       0.00000000
Si       2.69013060       0.00412137       2.74247392       0.00000000
