10
Lattice="16.28999089631971 0.0 0.0 0.0 16.28999089631971 0.0 0.0 0.0 34.51530692428229" Properties=species:S:1:pos:R:3:initial_magmoms:R:1 pbc="T T T"
Si      -0.61825437       1.02721482       2.01838725       0.00000000
Si      -0.59974893       1.58052096      -1.72041644       0.00000000
Si       2.42380539      -0.39027582      -0.00324444       0.00000000
Si      -1.21994181      -2.19867759      -0.00900850       0.00000000
Si       1.05298560       2.66566302       1.81757708       0.00000000
Si      -1.83552462       3.21202035      -0.24416142       0.00000000
Si       2.56583790      -2.16415908       1.59809412       0.00000000
Si       2.75299371      -1.53956790      -2.08068741       0.00000000
Si      -2.03522373       0.31011273      -3.24923829       0.00000000
Si       0.09602955      -0.33902748       3.86954774       0.00000000
