10
Lattice="16.28999089631971 0.0 0.0 0.0 16.28999089631971 0.0 0.0 0.0 34.51530692428229" Properties=species:S:1:pos:R:3:initial_magmoms:R:1 pbc="T T T"
Si      -1.43098528      -1.68250680       0.67446399       0.00000000
Si      -0.26098209       0.24767968      -2.39242984       0.00000000
Si      -0.77240664       1.93453198       1.27102689       0.00000000
Si       2.20367862      -0.94867488       0.50923912       0.00000000
Si      -0.97956657      -3.34068219      -0.97536860       0.00000000
Si       0.93636549       3.47592436       0.62666026       0.00000000
Si      -0.87900840      -1.94707269       3.01750239       0.00000000
Si       3.72910680       0.32683116      -0.68543986       0.00000000
Si       1.36756179      -1.10354391      -3.47217279       0.00000000
Si       3.06685314       2.44986613       0.01839667       0.00000000
