10
Lattice="16.28999089631971 0.0 0.0 0.0 16.28999089631971 0.0 0.0 0.0 34.51530692428229" Properties=species:S:1:pos:R:3:initial_magmoms:R:1 pbc="T T T"
Si       2.24199270      -0.81303390       0.02005340       0.00000000
Si      -0.16672815       0.66433878       2.31801479       0.00000000
Si      -1.50633630      -1.79087373      -0.61561536       0.00000000
Si       1.02472245       1.37177163      -2.24249526       0.00000000
Si      -1.71155772      -2.74879089       1.51498121       0.00000000
Si      -0.75678453      -1.44573750       3.21589649       0.00000000
Si      -1.77627789       3.13048907      -0.33973436       0.00000000
Si       1.72491552       2.05655127       2.75090601       0.00000000
Si       2.86024707      -1.84024872      -1.99833384       0.00000000
Si      -3.60697252      -0.80534502      -1.43590660       0.00000000
