10
Lattice="16.28999089631971 0.0 0.0 0.0 16.28999089631971 0.0 0.0 0.0 34.51530692428229" Properties=species:S:1:pos:R:3:initial_magmoms:R:1 pbc="T T T"
Si       1.39204566      -1.26420663      -1.38112733       0.00000000
Si       1.34260551       1.35550719       1.34632552       0.00000000
Si      -1.43840700       1.19109222      -1.41382715       0.00000000
Si      -1.36695906      -1.36161594       1.34252884       0.00000000
Si      -0.55012959      -2.12342268      -2.54182045       0.00000000
Si      -2.39730156      -0.62001369      -2.79880780       0.00000000
Si       2.70366759      -0.00410508       2.70471070       0.00000000
Si      -0.01018125       2.71028133       2.70502134       0.00000000
Si      -0.01221750      -2.71943058       2.70440006       0.00000000
Si       2.71029762       2.71924083      -0.04609177       0.00000000
