10
Lattice="16.28999089631971 0.0 0.0 0.0 16.28999089631971 0.0 0.0 0.0 34.51530692428229" Properties=species:S:1:pos:R:3:initial_magmoms:R:1 pbc="T T T"
Si       1.41791418      -1.55705426      -0.87848408       0.00000000
Si      -0.29424627      -0.07583714       2.29516565       0.00000000
Si       0.45802593       1.98456183      -1.10697554       0.00000000
Si      -2.22138585      -0.78389828       0.01408225       0.00000000
Si      -1.78976601       2.33478054      -1.87632216       0.00000000
Si      -2.75501367      -0.04311383       2.21298466       0.00000000
Si       0.03166776      -3.45795065      -0.89967649       0.00000000
Si      -3.25607778       0.49864342      -1.61455793       0.00000000
Si       1.13922486      -1.46123648      -3.22052154       0.00000000
Si       3.58858926      -1.19743622       0.13609393       0.00000000
