10
Lattice="16.28999089631971 0.0 0.0 0.0 16.28999089631971 0.0 0.0 0.0 34.51530692428229" Properties=species:S:1:pos:R:3:initial_magmoms:R:1 pbc="T T T"
Si      -1.34892603      -1.35883035      -1.37367547       0.00000000
Si       1.36011726       1.35553977      -1.37729958       0.00000000
Si       1.33626870      -1.28262573       1.52464550       0.00000000
Si      -1.46191347       1.24958961       1.48201908       0.00000000
Si      -0.57578634      -2.28861468       2.71438880       0.00000000
Si       2.20092561       0.50412663       2.90159993       0.00000000
Si       0.19932444       2.32062453       2.91640700       0.00000000
Si      -2.46707163      -0.64464417       2.77586060       0.00000000
Si       2.71710684      -2.71886942       0.02015695       0.00000000
Si       2.72217303       2.71889874       0.00327896       0.00000000
