10
Lattice="16.28999089631971 0.0 0.0 0.0 16.28999089631971 0.0 0.0 0.0 34.51530692428229" Properties=species:S:1:pos:R:3:initial_magmoms:R:1 pbc="T T T"
Si      -0.86465691      -1.78675236      -1.37695442       0.00000000
Si       1.79540235       0.84766644      -1.39390145       0.00000000
Si       0.49677984      -1.00491381       2.23821536       0.00000000
Si      -2.00160117       1.81649790       0.01480707       0.00000000
Si      -2.20092561      -0.50412663      -2.90159993       0.00000000
Si       0.52124742       2.21477211      -2.89832097       0.00000000
Si       3.11534847       2.27698362       0.04659569       0.00000000
Si      -0.87785181       3.50158437      -1.41989149       0.00000000
Si       1.76476086      -3.12027782       1.54214478       0.00000000
Si      -2.77671195      -2.79274131      -0.18721113       0.00000000
