10
Lattice="16.28999089631971 0.0 0.0 0.0 16.28999089631971 0.0 0.0 0.0 34.51530692428229" Properties=species:S:1:pos:R:3:initial_magmoms:R:1 pbc="T T T"
Si       0.72255924       0.86957649      -2.00779104       0.00000000
Si      -2.17135926      -0.81379953       0.19028299       0.00000000
Si      -0.19723932       1.81625355       1.44736569       0.00000000
Si       1.90848753      -1.12531320       0.82377729       0.00000000
Si      -0.50292117       0.65560734       3.53751030       0.00000000
Si       2.96838009       1.33951041      -1.65642502       0.00000000
Si      -2.12156073      -2.45736279       1.84370518       0.00000000
Si       3.29424525       0.53361153       1.74930576       0.00000000
Si       2.86676307      -2.19550104      -1.14017929       0.00000000
Si      -2.36014407       2.76320754       1.23022977       0.00000000
