10
Lattice="16.28999089631971 0.0 0.0 0.0 16.28999089631971 0.0 0.0 0.0 34.51530692428229" Properties=species:S:1:pos:R:3:initial_magmoms:R:1 pbc="T T T"
Si      -0.51717492       1.98096174       1.22833143       0.00000000
Si       2.01096792      -0.64656639      -1.17393528       0.00000000
Si      -1.73418453      -1.07194716      -1.40007969       0.00000000
Si       2.23964694      -0.71483778       1.52564338       0.00000000
Si      -1.65504771       0.44631342       2.65055412       0.00000000
Si       1.94476536       1.40282964      -2.53221691       0.00000000
Si      -3.20438961      -0.83627973       1.35804003       0.00000000
Si       1.12137102      -2.42206236       2.80124804       0.00000000
Si      -0.70680681      -1.86870735      -3.43206598       0.00000000
Si      -1.79646120       3.57093090      -0.39640852       0.00000000
