10
Lattice="16.28999089631971 0.0 0.0 0.0 16.28999089631971 0.0 0.0 0.0 34.51530692428229" Properties=species:S:1:pos:R:3:initial_magmoms:R:1 pbc="T T T"
Si      -1.35661491      -1.35848826       1.35703908       0.00000000
Si       1.35866745       1.35697329       1.35741875       0.00000000
Si      -1.35746199       1.35988920      -1.36000740       0.00000000
Si       1.36003581      -1.35940050      -1.36301023       0.00000000
Si      -0.00159642       2.70264132      -2.71582119       0.00000000
Si      -2.71528236       2.71339272       0.00100094       0.00000000
Si      -2.71419093      -0.00078192       2.71504459       0.00000000
Si       0.00087966       2.71443528       2.71483750       0.00000000
Si       0.00107514      -2.71575477       2.71476847       0.00000000
Si       2.71575477      -0.00089595       2.71480298       0.00000000
