10
Lattice="16.28999089631971 0.0 0.0 0.0 16.28999089631971 0.0 0.0 0.0 34.51530692428229" Properties=species:S:1:pos:R:3:initial_magmoms:R:1 pbc="T T T"
Si      -0.02544661      -1.88680947       1.41754445       0.00000000
Si      -2.22738450       0.50551454      -0.65858694       0.00000000
Si       1.02041374      -1.36882005      -1.66788411       0.00000000
Si       1.49448044       1.88407208       1.26467607       0.00000000
Si       0.82352955      -0.06121130       2.76043366       0.00000000
Si      -0.21742426      -3.25293774      -0.91296489       0.00000000
Si       2.67167729       2.28664685      -0.83827373       0.00000000
Si       3.33844328      -1.53020508      -0.98934731       0.00000000
Si      -3.59846493      -1.42707309      -0.13733648       0.00000000
Si      -3.28830333       1.70506127       1.20337685       0.00000000
