10
Lattice="16.28999089631971 0.0 0.0 0.0 16.28999089631971 0.0 0.0 0.0 34.51530692428229" Properties=species:S:1:pos:R:3:initial_magmoms:R:1 pbc="T T T"
Si      -1.79447382      -0.39710133       1.40094258       0.00000000
Si       1.92645540       0.74293803       1.13797031       0.00000000
Si       0.76882284      -2.21065074      -0.30704834       0.00000000
Si      -0.64019700       1.68376698      -1.54021192       0.00000000
Si       0.72470952       0.81624303      -3.18127762       0.00000000
Si       3.56581584      -0.34453350      -0.15455963       0.00000000
Si       0.30586104       3.57686046      -0.66921766       0.00000000
Si       1.38989538       0.27515439       3.40314213       0.00000000
Si      -0.97598277       0.13727583       3.56601996       0.00000000
Si       2.87564112       0.64018071      -2.24822480       0.00000000
