10
Lattice="16.28999089631971 0.0 0.0 0.0 16.28999089631971 0.0 0.0 0.0 34.51530692428229" Properties=species:S:1:pos:R:3:initial_magmoms:R:1 pbc="T T T"
Si       0.29424627       0.07583714      -2.29516565       0.00000000
Si       1.03995360       1.66771223       1.22729597       0.00000000
Si       0.67122945      -2.17950426       0.77127948       0.00000000
Si      -2.46076740       0.03272331      -0.08218099       0.00000000
Si      -1.92713958      -0.70806114      -2.28108339       0.00000000
Si      -2.52385857      -1.47375630       1.76197289       0.00000000
Si      -0.50712399      -2.10847986       2.79632818       0.00000000
Si      -0.03653847       1.59108081       3.31664673       0.00000000
Si       0.57145320       3.69580094       0.03054606       0.00000000
Si       3.36142521       1.11623708       1.61649079       0.00000000
