10
Lattice="16.28999089631971 0.0 0.0 0.0 16.28999089631971 0.0 0.0 0.0 34.51530692428229" Properties=species:S:1:pos:R:3:initial_magmoms:R:1 pbc="T T T"
Si       0.30517686      -1.85862221      -1.41060687       0.00000000
Si       1.93482846       0.17391204       1.34965280       0.00000000
Si      -0.13229109       2.20504698      -0.87033847       0.00000000
Si      -1.93534974      -0.00706986       1.39624849       0.00000000
Si      -0.62327169      -0.58591220      -3.26873945       0.00000000
Si      -0.95158035       1.63559745       2.81555322       0.00000000
Si      -1.89125271       1.52945181      -2.57266887       0.00000000
Si      -1.09056663       3.27523482       1.09361811       0.00000000
Si       2.62103724      -2.33723123      -0.92407883       0.00000000
Si       2.80574955      -1.97203645       1.44277515       0.00000000
