10
Lattice="16.28999089631971 0.0 0.0 0.0 16.28999089631971 0.0 0.0 0.0 34.51530692428229" Properties=species:S:1:pos:R:3:initial_magmoms:R:1 pbc="T T T"
Si      -1.55932767      -1.59424596       0.69330936       0.00000000
Si      -0.30517686       1.85862221       1.41060687       0.00000000
Si       2.31586038      -0.47860902       0.48652804       0.00000000
Si      -0.92844855       1.27271001      -1.85813259       0.00000000
Si      -2.57592141      -2.15988363      -1.49868998       0.00000000
Si      -1.28063835      -1.69006374       3.03534682       0.00000000
Si       2.80828101      -2.21559543      -1.06317559       0.00000000
Si      -0.96863598      -3.65760252      -0.18438087       0.00000000
Si       1.62965160       2.03253425       2.76025967       0.00000000
Si       2.50057269      -0.11341424       2.85338202       0.00000000
