10
Lattice="16.28999089631971 0.0 0.0 0.0 16.28999089631971 0.0 0.0 0.0 34.51530692428229" Properties=species:S:1:pos:R:3:initial_magmoms:R:1 pbc="T T T"
Si       1.48852071       1.25946135      -1.43100542       0.00000000
Si      -1.31994612      -1.42931718      -1.44049714       0.00000000
Si      -0.84520665       2.00585286       1.23689123       0.00000000
Si       0.66321477      -1.00053180       2.74838640       0.00000000
Si      -0.75798999       0.92870919       3.37770434       0.00000000
Si      -3.11534847      -2.27698362      -0.04659569       0.00000000
Si       2.65731507       2.83590981       0.09612518       0.00000000
Si      -2.59410105      -0.06221151      -2.94491666       0.00000000
Si       0.12391803       2.63487492      -2.94322541       0.00000000
Si       0.10976202      -2.77796628      -2.93863487       0.00000000
