10
Lattice="16.28999089631971 0.0 0.0 0.0 16.28999089631971 0.0 0.0 0.0 34.51530692428229" Properties=species:S:1:pos:R:3:initial_magmoms:R:1 pbc="T T T"
Si      -0.98505630      -1.57108905       1.42696713       0.00000000
Si       0.83137059      -1.39779603      -1.68324343       0.00000000
Si       1.31187021       1.44195822       1.37370998       0.00000000
Si      -1.78528626       1.17369450      -1.10393819       0.00000000
Si       0.98760636       2.22220035      -2.32874906       0.00000000
Si      -0.67914639       3.21341427      -0.92307788       0.00000000
Si       0.53338740       0.03859101      -3.41670666       0.00000000
Si      -0.49850658      -0.47368062       3.52580960       0.00000000
Si      -0.10350666       3.36515562       1.33650246       0.00000000
Si      -0.05691726      -3.61030383       0.36482700       0.00000000
