10
Lattice="16.28999089631971 0.0 0.0 0.0 16.28999089631971 0.0 0.0 0.0 34.51530692428229" Properties=species:S:1:pos:R:3:initial_magmoms:R:1 pbc="T T T"
Si       2.13022701      -0.99048087       0.20105178       0.00000000
Si      -0.30340125       1.70266338       1.64703685       0.00000000
Si      -1.50918705      -1.70186517       0.85894841       0.00000000
Si       0.26342559       0.82710846      -2.49904768       0.00000000
Si      -0.83580732       3.40464258      -0.15932275       0.00000000
Si       2.19566394      -2.34895284      -1.80535865       0.00000000
Si      -3.55643280      -1.13922486      -0.42426239       0.00000000
Si      -1.58602698       0.14183703       3.42560958       0.00000000
Si      -1.88030583       0.53696727      -3.31005430       0.00000000
Si       0.50422437       3.16804662      -2.19803952       0.00000000
