10
Lattice="16.28999089631971 0.0 0.0 0.0 16.28999089631971 0.0 0.0 0.0 34.51530692428229" Properties=species:S:1:pos:R:3:initial_magmoms:R:1 pbc="T T T"
Si      -1.81856673       0.49436892       1.41636786       0.00000000
Si       1.50918705       1.70186517      -0.85894841       0.00000000
Si      -2.04724575       0.56264031      -1.28321080       0.00000000
Si       1.12971150      -2.04167457       1.15160386       0.00000000
Si      -0.07683993       1.84370220       2.56666117       0.00000000
Si      -1.72742418      -2.16567405      -1.77705609       0.00000000
Si       1.20578580       3.40452855       0.78808844       0.00000000
Si       3.63941406       0.71138430      -0.65789663       0.00000000
Si       2.64697839      -1.07126298       2.68159721       0.00000000
Si       2.19063033      -3.24122130      -0.71035993       0.00000000
