10
Lattice="16.28999089631971 0.0 0.0 0.0 16.28999089631971 0.0 0.0 0.0 34.51530692428229" Properties=species:S:1:pos:R:3:initial_magmoms:R:1 pbc="T T T"
Si       1.35650727       1.35619137      -1.35728069       0.00000000
Si       1.35740577      -1.35715248       1.35724617       0.00000000
Si      -1.35739683       1.35769005       1.35769487       0.00000000
Si      -1.35764118      -1.35913986      -1.35634877       0.00000000
Si       0.00143352      -2.71362078       2.71463041       0.00000000
Si      -0.00249237      -2.71394658      -2.71456138       0.00000000
Si      -0.00102627       2.71463076       2.71390558       0.00000000
Si      -2.71469592      -2.71495656       0.00010355       0.00000000
Si      -2.71494027       2.71503801       0.00069031       0.00000000
Si      -2.71500543       0.00008145       2.71501008       0.00000000
