10
Lattice="16.28999089631971 0.0 0.0 0.0 16.28999089631971 0.0 0.0 0.0 34.51530692428229" Properties=species:S:1:pos:R:3:initial_magmoms:R:1 pbc="T T T"
Si      -1.10613987      -2.03971977      -0.18086031       0.00000000
Si       0.57563973       0.15174135       2.25958035       0.00000000
Si      -0.65624265       2.20395555      -0.42270920       0.00000000
Si       1.66675275      -0.99121392      -1.40567118       0.00000000
Si       0.67914639      -3.21341427       0.92307788       0.00000000
Si      -2.71819827       1.66767246      -1.34357810       0.00000000
Si       1.99101660      -1.77145605       2.29678787       0.00000000
Si       3.58335107      -0.23063382      -0.32686014       0.00000000
Si       1.31444892      -0.09137061      -3.53053820       0.00000000
Si      -1.06347636      -2.76558588      -2.42991348       0.00000000
