10
Lattice="16.28999089631971 0.0 0.0 0.0 16.28999089631971 0.0 0.0 0.0 34.51530692428229" Properties=species:S:1:pos:R:3:initial_magmoms:R:1 pbc="T T T"
Si       1.34153037       1.36830528       1.37964317       0.00000000
Si      -1.37458278      -1.35001746       1.37525972       0.00000000
Si      -1.32745581       1.46475023      -1.35039833       0.00000000
Si       1.36876725      -1.42236135      -1.51256169       0.00000000
Si      -0.34505478      -2.54498670      -2.63743757       0.00000000
Si       2.69699158       2.70564587       0.01864863       0.00000000
Si       2.70603722      -2.71682991      -0.01353346       0.00000000
Si       2.69860753       0.01029819       2.73516357       0.00000000
Si      -2.72907999      -2.70598077      -0.00130468       0.00000000
Si      -0.01599678      -2.70454725       2.73516357       0.00000000
