10
Lattice="16.28999089631971 0.0 0.0 0.0 16.28999089631971 0.0 0.0 0.0 34.51530692428229" Properties=species:S:1:pos:R:3:initial_magmoms:R:1 pbc="T T T"
Si      -0.97018353       0.04751793       2.16732088       0.00000000
Si       0.79542441       1.91374920      -1.21977163       0.00000000
Si      -1.89416862      -0.73498851      -1.29926042       0.00000000
Si       1.79647749      -1.85386716       0.03406663       0.00000000
Si      -0.56368287      -2.06408961      -2.66051038       0.00000000
Si       2.14979130       0.66096675      -2.65702433       0.00000000
Si       3.44149056      -0.63040671      -1.16213103       0.00000000
Si      -2.65575870      -2.58266547      -0.04027939       0.00000000
Si       0.69128244      -3.50516817      -1.23154135       0.00000000
Si       0.63710190      -1.45020096       3.48162999       0.00000000
