10
Lattice="16.28999089631971 0.0 0.0 0.0 16.28999089631971 0.0 0.0 0.0 34.51530692428229" Properties=species:S:1:pos:R:3:initial_magmoms:R:1 pbc="T T T"
Si      -1.00108566       2.09670219       0.01860376       0.00000000
Si      -1.49387445      -1.10051982       1.40563666       0.00000000
Si       0.49156282      -1.09574685      -2.01283028       0.00000000
Si       2.01027464       0.44409798       1.15622891       0.00000000
Si      -0.75865788       2.52837090       2.39498397       0.00000000
Si       0.60945030       3.31373365      -1.17793905       0.00000000
Si       2.81257343      -0.73189341      -2.14360885       0.00000000
Si      -1.88535573       0.61238997       3.09443706       0.00000000
Si      -3.17176074       1.73708415      -0.99597425       0.00000000
Si       2.57930063      -1.39918068       2.40658112       0.00000000
