10
Lattice="16.28999089631971 0.0 0.0 0.0 16.28999089631971 0.0 0.0 0.0 34.51530692428229" Properties=species:S:1:pos:R:3:initial_magmoms:R:1 pbc="T T T"
Si       0.18219225      -0.70077951       2.18851329       0.00000000
Si      -1.31187021      -1.44195822      -1.37370998       0.00000000
Si      -1.41537687       1.92319740      -0.03720752       0.00000000
Si       2.23463288       0.70193610      -0.49367271       0.00000000
Si      -1.81037679      -1.91563884       2.15209962       0.00000000
Si       1.59233447       1.54082223      -2.62364801       0.00000000
Si       2.16336413       2.36946195       1.22470732       0.00000000
Si       0.30615100       3.42202401       0.33541994       0.00000000
Si      -1.99101660       1.77145605      -2.29678787       0.00000000
Si      -2.29692651      -3.01304727       0.05325715       0.00000000
