10
Lattice="16.28999089631971 0.0 0.0 0.0 16.28999089631971 0.0 0.0 0.0 34.51530692428229" Properties=species:S:1:pos:R:3:initial_magmoms:R:1 pbc="T T T"
Si       1.34467434       1.35956340       1.37860426       0.00000000
Si      -1.36613479      -1.35487188       1.37763783       0.00000000
Si      -1.28713480       1.30127778      -1.55486022       0.00000000
Si       1.40613651      -1.34381097      -1.46279749       0.00000000
Si      -0.62672517      -2.19509379      -2.61741765       0.00000000
Si       0.55094409       1.98710307      -3.03840630       0.00000000
Si      -2.28917343      -0.39996837      -2.98797940       0.00000000
Si       2.50189965       0.27500778      -2.85157484       0.00000000
Si      -2.71850739       2.70606222      -0.01046505       0.00000000
Si       2.70337437      -2.72184723       0.00309257       0.00000000
