10
Lattice="16.28999089631971 0.0 0.0 0.0 16.28999089631971 0.0 0.0 0.0 34.51530692428229" Properties=species:S:1:pos:R:3:initial_magmoms:R:1 pbc="T T T"
Si       1.57568120      -0.41418954       1.82838038       0.00000000
Si      -1.83776517       1.12783815       1.23119620       0.00000000
Si      -1.16879435      -1.57644846      -1.52713061       0.00000000
Si       1.44962918       1.07147475      -1.72345378       0.00000000
Si       2.65973183       1.78944021       1.55550221       0.00000000
Si       2.33872109       2.80513800      -0.52311428       0.00000000
Si      -3.50252172      -0.83005695       1.14076605       0.00000000
Si      -2.65731507      -2.83590981      -0.09612518       0.00000000
Si       2.85503264      -2.67291207       0.33959629       0.00000000
Si      -2.53339704      -0.20103489      -3.03935060       0.00000000
