10
Lattice="16.28999089631971 0.0 0.0 0.0 16.28999089631971 0.0 0.0 0.0 34.51530692428229" Properties=species:S:1:pos:R:3:initial_magmoms:R:1 pbc="T T T"
Si       0.88909191       1.73366325       1.20033950       0.00000000
Si       1.45583730      -1.27741293      -1.32248924       0.00000000
Si      -1.28317633       1.46460132      -1.32024574       0.00000000
Si      -1.44962918      -1.07147475       1.72345378       0.00000000
Si       1.21010265       0.71796546       3.27895599       0.00000000
Si      -2.61842353      -2.64792321       0.19632318       0.00000000
Si       0.08390979      -2.62076778      -2.69561246       0.00000000
Si      -2.63531721       0.10358811      -2.69568149       0.00000000
Si       2.74479984      -2.59071273       0.31346819       0.00000000
Si       0.12605202      -1.48566429       3.55183416       0.00000000
