10
Lattice="16.28999089631971 0.0 0.0 0.0 16.28999089631971 0.0 0.0 0.0 34.51530692428229" Properties=species:S:1:pos:R:3:initial_magmoms:R:1 pbc="T T T"
Si      -1.57568120       0.41418954      -1.82838038       0.00000000
Si       1.08405063       2.20362975      -0.27287817       0.00000000
Si      -0.42894828      -0.37331793       2.43567754       0.00000000
Si       1.27935144      -2.25872253      -1.48878408       0.00000000
Si       1.22578992       0.99100215       3.37943010       0.00000000
Si       1.98830853      -3.03670035       0.90606183       0.00000000
Si      -3.41344637       1.54202769      -0.59718417       0.00000000
Si       3.16423476       0.73774152       1.99243172       0.00000000
Si       0.38664315      -2.56139073       2.80219579       0.00000000
Si       3.40042347       1.74912246      -0.20543522       0.00000000
