10
Lattice="16.28999089631971 0.0 0.0 0.0 16.28999089631971 0.0 0.0 0.0 34.51530692428229" Properties=species:S:1:pos:R:3:initial_magmoms:R:1 pbc="T T T"
Si       1.35701890      -1.35645209       1.35752230       0.00000000
Si       1.35690487       1.35666052      -1.35828163       0.00000000
Si      -1.35739705       1.35755647       1.35728069       0.00000000
Si      -1.35810161      -1.35696453      -1.35755681       0.00000000
Si      -0.00012380       2.71342204       2.71466492       0.00000000
Si      -2.71517877       0.00104256      -2.71307722       0.00000000
Si      -2.71449459      -0.00140583       2.71411268       0.00000000
Si       0.00002769      -2.71425024       2.71476847       0.00000000
Si      -2.71499958      -2.71444572      -0.00010355       0.00000000
Si       2.71485556      -2.71464120      -0.00010355       0.00000000
