10
Lattice="16.28999089631971 0.0 0.0 0.0 16.28999089631971 0.0 0.0 0.0 34.51530692428229" Properties=species:S:1:pos:R:3:initial_magmoms:R:1 pbc="T T T"
Si       1.46389222      -1.79188371      -0.76724119       0.00000000
Si       1.07617067       2.05109019      -0.77045111       0.00000000
Si      -1.95067164      -0.59797332      -1.39517852       0.00000000
Si       0.39235394      -0.13365945       2.74583226       0.00000000
Si      -3.29070333      -0.36137736       0.64353826       0.00000000
Si       1.47137584      -3.14178714       1.13596842       0.00000000
Si       3.29557891       1.57496607       0.05594934       0.00000000
Si       3.44406226      -0.64436724      -1.24776356       0.00000000
Si       0.23650751       3.82243221       0.69707153       0.00000000
Si      -2.19147042      -2.93891148      -1.69618668       0.00000000
