10
Lattice="16.28999089631971 0.0 0.0 0.0 16.28999089631971 0.0 0.0 0.0 34.51530692428229" Properties=species:S:1:pos:R:3:initial_magmoms:R:1 pbc="T T T"
Si       1.35677781      -1.35725022      -1.36118092       0.00000000
Si      -1.35700750       1.35827649      -1.36138801       0.00000000
Si       1.34925183       1.35731538       1.37167358       0.00000000
Si      -1.36713499      -1.34700381       1.37429674       0.00000000
Si      -2.71927587      -2.70801702      -0.00113901       0.00000000
Si      -0.17379801       2.57665446       2.83964492       0.00000000
Si       2.62723491      -0.03935664       2.80071163       0.00000000
Si       2.71788876      -2.71467963      -0.00013806       0.00000000
Si      -2.71487468       0.00053757      -2.71873773       0.00000000
Si      -2.71822202       2.71560816      -0.00490118       0.00000000
