10
Lattice="16.28999089631971 0.0 0.0 0.0 16.28999089631971 0.0 0.0 0.0 34.185847837958455" Properties=species:S:1:pos:R:3:initial_magmoms:R:1 pbc="T T T"
Si       0.67984686      -0.02739978      -2.21459465       0.00000000
Si       1.68971283      -0.33347259       1.61958963       0.00000000
Si      -1.63601122      -1.80007758       0.06013294       0.00000000
Si      -0.45685305       2.37081402       0.48697767       0.00000000
Si      -0.19595241       0.19407906       3.29490223       0.00000000
Si      -3.21327485      -0.32910687       1.07319692       0.00000000
Si      -1.12921628       0.73924020      -3.53526306       0.00000000
Si      -0.25223436       2.55743226       2.83780300       0.00000000
Si      -2.42507601       1.04190840       2.80611270       0.00000000
Si       2.62143567       1.26355014      -2.58605828       0.00000000
