10
Lattice="16.28999089631971 0.0 0.0 0.0 16.28999089631971 0.0 0.0 0.0 34.185847837958455" Properties=species:S:1:pos:R:3:initial_magmoms:R:1 pbc="T T T"
Si       1.35690813       1.35671265       1.35734985       0.00000000
Si       1.35780408      -1.35777639      -1.35693962       0.00000000
Si      -1.35767376       1.35845568      -1.35711055       0.00000000
Si      -1.35951453      -1.35807449       1.35734985       0.00000000
Si      -2.71376739       0.00122175       2.71247761       0.00000000
Si       2.71388142      -0.00107514      -2.71425528       0.00000000
Si       2.71472850      -2.71433544      -0.00030767       0.00000000
Si      -0.00081450       2.71524978      -2.71422109       0.00000000
Si      -2.71482624      -2.71478783       0.00027349       0.00000000
Si      -2.71507059       2.71523349      -0.00027349       0.00000000
