10
Lattice="16.28999089631971 0.0 0.0 0.0 16.28999089631971 0.0 0.0 0.0 34.185847837958455" Properties=species:S:1:pos:R:3:initial_magmoms:R:1 pbc="T T T"
Si      -2.11010886      -1.05419662       0.10703595       0.00000000
Si       1.56960666      -1.52575954      -1.00851726       0.00000000
Si      -0.33837588       2.18903554      -0.96616097       0.00000000
Si       1.12026330       0.33774383       2.13039486       0.00000000
Si      -2.09346048      -2.10767092       2.27400968       0.00000000
Si       1.79667297       3.24073423      -0.94270947       0.00000000
Si       3.11961645      -0.34572430      -2.39290813       0.00000000
Si       0.62037207      -2.76233344      -2.79674577       0.00000000
Si       3.36520449       1.11822542       1.81909835       0.00000000
Si      -2.77044030      -2.23965250      -1.87047971       0.00000000
