10
Lattice="16.28999089631971 0.0 0.0 0.0 16.28999089631971 0.0 0.0 0.0 34.185847837958455" Properties=species:S:1:pos:R:3:initial_magmoms:R:1 pbc="T T T"
Si       2.13504885       1.05169869       0.02345150       0.00000000
Si      -0.95254146       0.33401016      -2.16386282       0.00000000
Si      -1.45642374       1.62137628       1.04061779       0.00000000
Si       0.33837588      -2.18903554       0.96616097       0.00000000
Si       2.21715045       1.57416786      -2.25069492       0.00000000
Si      -1.31678586       0.90357372       3.30967052       0.00000000
Si       0.04922838       2.45983887      -2.76536315       0.00000000
Si       1.81846899       3.11042889       1.02738786       0.00000000
Si       0.26101467      -1.14337229      -3.56391081       0.00000000
Si      -0.38556801       3.70185363       0.68689662       0.00000000
