10
Lattice="16.28999089631971 0.0 0.0 0.0 16.28999089631971 0.0 0.0 0.0 34.185847837958455" Properties=species:S:1:pos:R:3:initial_magmoms:R:1 pbc="T T T"
Si       1.33835382       1.34055297      -1.35869677       0.00000000
Si      -1.35918873       1.35586557       1.35892240       0.00000000
Si       1.35550719      -1.36045935       1.35888821       0.00000000
Si      -1.36523232      -1.36399428      -1.39365866       0.00000000
Si       2.64106512      -0.09695808      -2.72414867       0.00000000
Si      -2.71277370       2.70712107       0.00126488       0.00000000
Si       2.71292031      -2.71535078       0.00222208       0.00000000
Si      -0.00078192       2.71350675       2.71572527       0.00000000
Si       2.71440270      -0.00162900       2.71586201       0.00000000
Si       2.71630863       2.71485882       0.00129906       0.00000000
