10
Lattice="16.28999089631971 0.0 0.0 0.0 16.28999089631971 0.0 0.0 0.0 34.185847837958455" Properties=species:S:1:pos:R:3:initial_magmoms:R:1 pbc="T T T"
Si      -1.25708953      -0.74644038      -1.81619255       0.00000000
Si       0.68955570       2.22290082       0.21728537       0.00000000
Si       2.16894834      -0.86126859      -0.34168774       0.00000000
Si      -1.20442233      -0.26482653       2.16806768       0.00000000
Si      -2.67557453       1.60863750       1.22600775       0.00000000
Si       3.10956552      -0.22828806       1.75219661       0.00000000
Si       2.17704447       2.01114711       2.08154325       0.00000000
Si      -2.55269906       1.12671414      -2.35273973       0.00000000
Si       1.78496046      -3.12416855      -0.86086850       0.00000000
Si      -2.24250488      -2.75309864      -1.10789558       0.00000000
