10
Lattice="16.28999089631971 0.0 0.0 0.0 16.28999089631971 0.0 0.0 0.0 34.185847837958455" Properties=species:S:1:pos:R:3:initial_magmoms:R:1 pbc="T T T"
Si      -0.29514222      -0.11701107       2.38080633       0.00000000
Si       1.90834092       0.90660366      -1.19175351       0.00000000
Si      -0.86416821      -1.92735135      -1.21995685       0.00000000
Si      -1.83259242       1.65011184      -0.22507975       0.00000000
Si      -0.68818734      -2.50497846       2.26252323       0.00000000
Si      -2.18123100      -0.54589419      -2.63737126       0.00000000
Si       0.55501659       2.20459086      -2.63361082       0.00000000
Si      -0.88011612       3.48615774      -1.30737011       0.00000000
Si      -3.64047291       0.72567063      -1.37898950       0.00000000
Si       3.45751992       2.01026745       0.24976194       0.00000000
