10
Lattice="16.28999089631971 0.0 0.0 0.0 16.28999089631971 0.0 0.0 0.0 34.185847837958455" Properties=species:S:1:pos:R:3:initial_magmoms:R:1 pbc="T T T"
Si      -0.80425359      -1.88939565      -1.20132555       0.00000000
Si      -1.64006091       1.72371006       0.42069128       0.00000000
Si       0.62191962      -1.10451087       2.15094056       0.00000000
Si       1.06443747       1.60086717      -1.82740552       0.00000000
Si       3.35202588      -0.37372518      -0.99289432       0.00000000
Si       2.53752588       2.46058821      -0.22480626       0.00000000
Si      -2.18773071      -2.90846547       0.46855149       0.00000000
Si      -3.11678199       1.28392893      -1.46917182       0.00000000
Si      -0.07333758       0.60022134       3.64411086       0.00000000
Si      -2.15899515       1.30277646       2.71025553       0.00000000
