10
Lattice="16.28999089631971 0.0 0.0 0.0 16.28999089631971 0.0 0.0 0.0 34.185847837958455" Properties=species:S:1:pos:R:3:initial_magmoms:R:1 pbc="T T T"
Si      -0.01430262       1.69989408       1.66242452       0.00000000
Si       0.07242534       1.28339136      -2.00718899       0.00000000
Si      -1.70999388      -1.58244318       0.63681433       0.00000000
Si       2.15689374      -0.98943831      -0.68956312       0.00000000
Si      -0.11267793      -0.58398021      -3.41564671       0.00000000
Si       1.30292307       0.57620988       3.22932454       0.00000000
Si      -1.04389578      -3.38226012      -0.79287281       0.00000000
Si      -2.45289933      -0.93884157       2.88125324       0.00000000
Si       2.09135907      -1.17540495      -3.07515547       0.00000000
Si       2.78695836      -2.69456148       0.83981001       0.00000000
