10
Lattice="16.28999089631971 0.0 0.0 0.0 16.28999089631971 0.0 0.0 0.0 34.185847837958455" Properties=species:S:1:pos:R:3:initial_magmoms:R:1 pbc="T T T"
Si      -1.58415363      -0.73713879      -1.51580134       0.00000000
Si       1.57876164      -1.59524712       0.61978977       0.00000000
Si      -0.31801338       1.10556972       2.03115328       0.00000000
Si       1.41130044       1.21445208      -1.44760054       0.00000000
Si       2.91880962       1.97907210       0.22063559       0.00000000
Si       3.58049313      -0.26609715       0.23516458       0.00000000
Si       1.76756274       2.09846151       2.38234470       0.00000000
Si      -2.17189683       1.17631719      -2.77893494       0.00000000
Si       2.38988961      -0.54797931      -2.89591897       0.00000000
Si       1.39365837      -3.46261869      -0.78866795       0.00000000
