10
Lattice="16.28999089631971 0.0 0.0 0.0 16.28999089631971 0.0 0.0 0.0 34.185847837958455" Properties=species:S:1:pos:R:3:initial_magmoms:R:1 pbc="T T T"
Si      -1.34385984      -1.33279893       1.36913372       0.00000000
Si      -1.38979764       1.32519150      -1.38332769       0.00000000
Si       1.37277459       1.38131055       1.36581769       0.00000000
Si       1.23592230      -1.45652148      -1.46100823       0.00000000
Si       1.96696863       0.44944110      -2.64991987       0.00000000
Si       0.36329958       2.24736840      -2.79417299       0.00000000
Si      -2.70804960      -2.68729614      -0.00832768       0.00000000
Si      -2.67550218       2.73596035       0.01243682       0.00000000
Si       0.01154961      -2.69405649       2.72391962       0.00000000
Si      -2.70301599       0.01967832       2.72327009       0.00000000
