10
Lattice="16.28999089631971 0.0 0.0 0.0 16.28999089631971 0.0 0.0 0.0 34.185847837958455" Properties=species:S:1:pos:R:3:initial_magmoms:R:1 pbc="T T T"
Si       1.35580041       1.35601218      -1.35738403       0.00000000
Si      -1.35738054       1.35705146       1.35745240       0.00000000
Si       1.35760860      -1.35733167       1.35697380       0.00000000
Si      -1.35788553      -1.36001952      -1.35786263       0.00000000
Si       0.00127062      -2.71249677      -2.71199901       0.00000000
Si      -0.00206883       2.71376480       2.71452876       0.00000000
Si      -0.00035838      -2.71433754       2.71449458       0.00000000
Si       2.71427238      -0.00122175       2.71473388       0.00000000
Si       2.71524978       2.71406291       0.00023930       0.00000000
Si       2.71458189      -2.71487511      -0.00027349       0.00000000
