10
Lattice="16.28999089631971 0.0 0.0 0.0 16.28999089631971 0.0 0.0 0.0 34.185847837958455" Properties=species:S:1:pos:R:3:initial_magmoms:R:1 pbc="T T T"
Si       1.35651717       1.35589815      -1.35779426       0.00000000
Si      -1.35697329       1.35754344       1.35724729       0.00000000
Si       1.35793440      -1.35821133       1.35683706       0.00000000
Si      -1.35790182      -1.35887922      -1.35693962       0.00000000
Si      -2.71331127       0.00237834      -2.71172552       0.00000000
Si      -0.00030951       2.71365336       2.71500737       0.00000000
Si      -2.71458189       2.71487511       0.00027349       0.00000000
Si       2.71419093      -0.00120546       2.71534923       0.00000000
Si      -2.71494027       0.00053757       2.71476807       0.00000000
Si       0.00226431      -2.71632492       2.71357156       0.00000000
