10
Lattice="16.28999089631971 0.0 0.0 0.0 16.28999089631971 0.0 0.0 0.0 34.185847837958455" Properties=species:S:1:pos:R:3:initial_magmoms:R:1 pbc="T T T"
Si      -1.35720135       1.35767376       1.35707636       0.00000000
Si       1.35796698       1.35700587      -1.35752078       0.00000000
Si      -1.35744570      -1.35827649      -1.35683706       0.00000000
Si       1.35987291      -1.35866745       1.35929844       0.00000000
Si      -0.00557118      -2.70863604       2.71753712       0.00000000
Si       2.71463076       2.71311579       0.00023930       0.00000000
Si      -2.71552671       2.71239903      -0.00047860       0.00000000
Si       0.00035838       2.71433754      -2.71449458       0.00000000
Si      -2.71487511      -0.00125433      -2.71473388       0.00000000
Si       2.71494027      -0.00053757      -2.71476807       0.00000000
