10
Lattice="16.28999089631971 0.0 0.0 0.0 16.28999089631971 0.0 0.0 0.0 34.185847837958455" Properties=species:S:1:pos:R:3:initial_magmoms:R:1 pbc="T T T"
Si      -1.35773892       1.35543944      -1.36138378       0.00000000
Si       1.35860229      -1.35954711      -1.36117866       0.00000000
Si      -1.35527913      -1.36839258       1.37143442       0.00000000
Si       1.37634210       1.34898860       1.37628882       0.00000000
Si      -0.04318479       2.65934969       2.76057713       0.00000000
Si      -2.71199178       2.71473569      -0.00625601       0.00000000
Si      -2.71322982      -2.71498914      -0.00434161       0.00000000
Si       2.71709055       2.71199897      -0.00263231       0.00000000
Si      -2.71305063      -0.00127390      -2.71846014       0.00000000
Si       0.00177561       2.71351394      -2.71873363       0.00000000
