10
Lattice="16.28999089631971 0.0 0.0 0.0 16.28999089631971 0.0 0.0 0.0 34.185847837958455" Properties=species:S:1:pos:R:3:initial_magmoms:R:1 pbc="T T T"
Si       1.87603785       0.34072394      -1.34726502       0.00000000
Si       1.19739645      -1.26775296       1.60796644       0.00000000
Si      -0.29646171       2.07284453       1.25923641       0.00000000
Si      -1.78311969      -1.48190130      -0.88725999       0.00000000
Si       0.63908928       1.70781821      -2.96070119       0.00000000
Si       0.06305859      -0.80666451       3.61806123       0.00000000
Si      -2.60335377       2.42588141       1.25178389       0.00000000
Si       0.30279852       1.55090315       3.53635701       0.00000000
Si       1.20573693      -3.56858514       1.04294243       0.00000000
Si       2.88794007       2.51326097      -1.06936810       0.00000000
