10
Lattice="16.28999089631971 0.0 0.0 0.0 16.28999089631971 0.0 0.0 0.0 34.185847837958455" Properties=species:S:1:pos:R:3:initial_magmoms:R:1 pbc="T T T"
Si       0.59582304      -1.72126656       1.40972260       0.00000000
Si       1.92249693       1.23843096      -0.44882625       0.00000000
Si      -1.46831544       1.76111190       0.47743982       0.00000000
Si      -1.38784284      -1.08672219      -1.55395277       0.00000000
Si      -1.35728280       2.53114020      -1.83680663       0.00000000
Si      -2.98737423      -1.75940145       0.07838819       0.00000000
Si      -3.40990425       0.47016198       0.84890345       0.00000000
Si       0.98502372       2.68885998      -2.10044804       0.00000000
Si      -2.30049009       0.63965943      -2.87120259       0.00000000
Si       1.57441221      -3.48369795      -0.03859584       0.00000000
