10
Lattice="16.28999089631971 0.0 0.0 0.0 16.28999089631971 0.0 0.0 0.0 34.185847837958455" Properties=species:S:1:pos:R:3:initial_magmoms:R:1 pbc="T T T"
Si       1.46831544      -1.76111190      -0.47743982       0.00000000
Si      -1.94158881      -1.29094992       0.37146363       0.00000000
Si       0.66033144       1.18545588       1.97751566       0.00000000
Si       0.11103264       0.77002830      -2.31424645       0.00000000
Si       0.08047260      -2.84783409      -2.03139259       0.00000000
Si       3.39081237      -0.52268094      -0.92626606       0.00000000
Si      -0.83217465      -1.12145247      -3.34864241       0.00000000
Si       2.45333916       0.92774808      -2.57788785       0.00000000
Si      -1.22790762       2.55076218       2.38699397       0.00000000
Si      -1.51905879      -3.52051335      -0.39905162       0.00000000
