10
Lattice="16.28999089631971 0.0 0.0 0.0 16.28999089631971 0.0 0.0 0.0 34.185847837958455" Properties=species:S:1:pos:R:3:initial_magmoms:R:1 pbc="T T T"
Si      -1.43000136       1.25664318      -1.36606041       0.00000000
Si       1.35783666       1.35226548       1.35696013       0.00000000
Si      -1.35814617      -1.36174952       1.36031034       0.00000000
Si       1.10946303      -1.46922768      -1.47600215       0.00000000
Si      -2.30852106      -0.60452190      -2.79462082       0.00000000
Si       2.69013060      -2.71229219      -0.01826893       0.00000000
Si       2.72880306       2.69027721      -0.01307268       0.00000000
Si      -0.00102627       2.70928764       2.71629276       0.00000000
Si      -0.73062279      -2.43032302      -2.87731643       0.00000000
Si      -2.73271266       2.69415423      -0.00060851       0.00000000
