10
Lattice="16.28999089631971 0.0 0.0 0.0 16.28999089631971 0.0 0.0 0.0 34.185847837958455" Properties=species:S:1:pos:R:3:initial_magmoms:R:1 pbc="T T T"
Si       0.49192542       1.26659963      -1.93112544       0.00000000
Si       1.49262012      -1.84015491       0.23212204       0.00000000
Si      -2.24494119      -0.78048159       0.31129650       0.00000000
Si       0.86472207       1.49322611       1.74905151       0.00000000
Si      -1.69337808      -2.48562987       1.88046198       0.00000000
Si       1.58853564      -0.41468476      -3.15309925       0.00000000
Si      -1.18951209       2.66208248       2.15709402       0.00000000
Si      -3.08133495       1.03396214       1.77229790       0.00000000
Si       0.01008351      -3.67458810       0.69287915       0.00000000
Si       2.89546605       2.26353134       0.80972644       0.00000000
