10
Lattice="16.28999089631971 0.0 0.0 0.0 16.28999089631971 0.0 0.0 0.0 34.185847837958455" Properties=species:S:1:pos:R:3:initial_magmoms:R:1 pbc="T T T"
Si      -1.35119034      -1.35583299      -1.38298925       0.00000000
Si       1.36360332       1.36011726      -1.37875020       0.00000000
Si      -1.33895655       1.42547274       1.40842353       0.00000000
Si       1.30393305      -1.38991167       1.48612801       0.00000000
Si       0.21022245       2.52913653       2.84993898       0.00000000
Si       2.70049104      -2.69735684      -0.01692200       0.00000000
Si      -2.69193879      -2.71884335      -0.00406812       0.00000000
Si      -2.69228088       2.72345994      -0.03343378       0.00000000
Si      -2.70959715       0.00239463      -2.74174071       0.00000000
Si       2.73575889       2.71595025      -0.00082046       0.00000000
