10
Lattice="16.28999089631971 0.0 0.0 0.0 16.28999089631971 0.0 0.0 0.0 34.185847837958455" Properties=species:S:1:pos:R:3:initial_magmoms:R:1 pbc="T T T"
Si       1.33002963      -1.26990324       1.38652407       0.00000000
Si      -0.82934019      -1.89801306      -1.11104444       0.00000000
Si       1.85684823       0.84623292      -1.24291334       0.00000000
Si      -1.41296202       1.47962070       1.34470449       0.00000000
Si      -0.93535551       1.21986036      -2.88647824       0.00000000
Si      -2.14656588      -0.77432886      -2.67794446       0.00000000
Si      -0.05835078      -2.58836697       2.73024059       0.00000000
Si      -2.76846921      -2.55655260       0.01640922       0.00000000
Si       2.65492791       0.12289176       2.72723223       0.00000000
Si       2.62141938      -2.76104097      -0.11351075       0.00000000
