10
Lattice="16.28999089631971 0.0 0.0 0.0 16.28999089631971 0.0 0.0 0.0 34.185847837958455" Properties=species:S:1:pos:R:3:initial_magmoms:R:1 pbc="T T T"
Si      -1.66039083      -0.89656902      -1.44773728       0.00000000
Si       1.00898631       1.68073704      -1.44866030       0.00000000
Si       1.81358199      -1.71624924      -0.30360468       0.00000000
Si      -1.20555774       0.26577135       2.26464276       0.00000000
Si      -0.27894996      -2.21276844      -2.86340822       0.00000000
Si       2.44646478       0.50696109      -2.87325374       0.00000000
Si       2.49790860       2.88679977      -0.06050898       0.00000000
Si      -3.05447274      -2.37583134      -0.06850848       0.00000000
Si      -1.32799338      -3.48615774       1.05135215       0.00000000
Si       0.36989703       0.67590468       3.92573403       0.00000000
