10
Lattice="16.28999089631971 0.0 0.0 0.0 16.28999089631971 0.0 0.0 0.0 34.185847837958455" Properties=species:S:1:pos:R:3:initial_magmoms:R:1 pbc="T T T"
Si       1.35852486      -1.35143469      -1.35793101       0.00000000
Si      -1.35675654      -1.35492075       1.35642683       0.00000000
Si       1.35824793       1.35980775       1.35659776       0.00000000
Si      -1.35620268       1.36039419      -1.36394772       0.00000000
Si       0.00065106      -2.71244790       2.71370830       0.00000000
Si       0.02090490       2.69578323      -2.73173451       0.00000000
Si      -2.71456062       0.00213399       2.71367412       0.00000000
Si      -2.71482126      -2.71349046       0.00020512       0.00000000
Si       2.71552258      -2.71314837      -0.00164092       0.00000000
Si       2.71552258       0.00228060       2.71360575       0.00000000
