10
Lattice="16.28999089631971 0.0 0.0 0.0 16.28999089631971 0.0 0.0 0.0 34.185847837958455" Properties=species:S:1:pos:R:3:initial_magmoms:R:1 pbc="T T T"
Si       2.11030434       0.04572603       0.98769807       0.00000000
Si       0.16120584       0.38705040      -2.29465795       0.00000000
Si      -1.07108379      -2.17334664      -0.07042289       0.00000000
Si      -0.97858917       1.76243139       1.44831844       0.00000000
Si       1.19060352       0.28188216       3.13108355       0.00000000
Si      -3.29958837      -1.57993452      -0.48759302       0.00000000
Si       2.73701322      -2.19458880       1.15254232       0.00000000
Si      -2.01552912       0.86801265      -2.98193062       0.00000000
Si      -0.99623124      -2.91463938       2.10725102       0.00000000
Si      -0.81112797      -1.04726781       3.51570874       0.00000000
