10
Lattice="16.28999089631971 0.0 0.0 0.0 16.28999089631971 0.0 0.0 0.0 34.185847837958455" Properties=species:S:1:pos:R:3:initial_magmoms:R:1 pbc="T T T"
Si      -1.37461536      -1.92028149       0.38753099       0.00000000
Si      -0.77071248       1.69649340       1.54123563       0.00000000
Si      -0.77963940       0.96852195      -2.09015809       0.00000000
Si       2.34913203      -0.73399482       0.04939858       0.00000000
Si      -3.26995686      -0.72011574       1.13739798       0.00000000
Si       2.31265872      -2.70821250      -1.16973781       0.00000000
Si      -2.32072227       0.51645816       2.92562649       0.00000000
Si       0.58715676       0.07692138      -3.77569226       0.00000000
Si      -0.57876741       3.34980134      -1.80713330       0.00000000
Si      -0.21683619      -3.51240093       1.71609633       0.00000000
