10
Lattice="16.28999089631971 0.0 0.0 0.0 16.28999089631971 0.0 0.0 0.0 34.185847837958455" Properties=species:S:1:pos:R:3:initial_magmoms:R:1 pbc="T T T"
Si       1.35575154       1.35754418       1.35748659       0.00000000
Si      -1.35770634       1.35748879      -1.35728148       0.00000000
Si       1.35734796      -1.35792293      -1.35724729       0.00000000
Si      -1.35755973      -1.35925871       1.35697380       0.00000000
Si       2.71260650      -0.00102759      -2.71408435       0.00000000
Si      -0.00034209       2.71403039      -2.71367412       0.00000000
Si       0.00144981       2.71652276       2.71216994       0.00000000
Si      -2.71458189       2.71499150       0.00006837       0.00000000
Si      -2.71505430      -2.71483106      -0.00020512       0.00000000
Si       2.71514951      -2.71492880      -0.00027349       0.00000000
