10
Lattice="16.28999089631971 0.0 0.0 0.0 16.28999089631971 0.0 0.0 0.0 34.185847837958455" Properties=species:S:1:pos:R:3:initial_magmoms:R:1 pbc="T T T"
Si       1.35222380      -1.35697536      -1.36107611       0.00000000
Si      -1.37785707      -1.34381304       1.35492265       0.00000000
Si      -1.36376622       1.35977866      -1.36042657       0.00000000
Si       1.37346107       1.34271488       1.37881857       0.00000000
Si      -0.15649803       2.53264400       2.74748394       0.00000000
Si       2.71054916      -2.71170063      -0.00352114       0.00000000
Si       2.71072835       0.00201461      -2.71763968       0.00000000
Si       2.71178720       2.71802420      -0.00543555       0.00000000
Si      -0.00436825      -2.71269432      -2.71818665       0.00000000
Si      -2.71819827      -2.71396494      -0.00283743       0.00000000
