10
Lattice="16.28999089631971 0.0 0.0 0.0 16.28999089631971 0.0 0.0 0.0 34.185847837958455" Properties=species:S:1:pos:R:3:initial_magmoms:R:1 pbc="T T T"
Si      -1.33646418      -1.36819451      -1.36432376       0.00000000
Si       1.21969746      -1.49740679       1.33858181       0.00000000
Si       1.37937204       1.34499362      -1.36999862       0.00000000
Si      -1.39655799       1.30744517       1.50305001       0.00000000
Si      -2.70049104       2.69735684       0.01692200       0.00000000
Si       2.73354345       2.68018718      -0.00796531       0.00000000
Si      -2.69573436      -0.01428959      -2.72587847       0.00000000
Si       0.01998783       2.69866004      -2.72475034       0.00000000
Si       2.71958292      -2.71757666      -0.00933274       0.00000000
Si      -2.69529453      -2.75071052       0.01469992       0.00000000
