10
Lattice="16.28999089631971 0.0 0.0 0.0 16.28999089631971 0.0 0.0 0.0 34.185847837958455" Properties=species:S:1:pos:R:3:initial_magmoms:R:1 pbc="T T T"
Si      -0.04600296       0.14476923       2.36343991       0.00000000
Si      -0.57577005       2.07982575      -1.11233974       0.00000000
Si      -1.63434312      -1.80254456      -0.03869840       0.00000000
Si       1.93974804      -0.73961487      -1.27598748       0.00000000
Si       0.51811974      -1.89393146      -2.76591012       0.00000000
Si      -2.09813571       0.91092051      -2.60144192       0.00000000
Si       2.78767512       1.93567554       0.80076975       0.00000000
Si       1.20707271       2.16898092       2.51043914       0.00000000
Si      -2.34875736       0.66805290       2.58455410       0.00000000
Si      -3.37517397      -0.71069360      -1.24939088       0.00000000
