10
Lattice="16.28999089631971 0.0 0.0 0.0 16.28999089631971 0.0 0.0 0.0 34.185847837958455" Properties=species:S:1:pos:R:3:initial_magmoms:R:1 pbc="T T T"
Si      -0.37753704      -0.23980509      -2.27076203       0.00000000
Si       2.20092561       0.59759865       0.53145349       0.00000000
Si      -0.92760147      -1.49518742       1.54858559       0.00000000
Si      -0.32224878       2.39327793      -0.18272346       0.00000000
Si       0.14133204       2.09178261      -2.63955916       0.00000000
Si      -2.02421169       0.18609696       2.77055940       0.00000000
Si       1.67167980       2.28275028       2.17196487       0.00000000
Si      -2.76172515      -2.54445239       0.48967836       0.00000000
Si       3.26286975       1.21547835      -1.53932122       0.00000000
Si       3.44808216      -1.14588747       1.38240809       0.00000000
