10
Lattice="16.28999089631971 0.0 0.0 0.0 16.28999089631971 0.0 0.0 0.0 34.185847837958455" Properties=species:S:1:pos:R:3:initial_magmoms:R:1 pbc="T T T"
Si       1.24715655      -1.74348612       0.85095460       0.00000000
Si      -2.20092561      -0.59759865      -0.53145349       0.00000000
Si       1.06194414       0.61787970      -2.07077470       0.00000000
Si      -0.52924581       1.68515163       1.64051138       0.00000000
Si      -2.52317439       1.79567928      -0.71417695       0.00000000
Si      -0.04826727       2.70896184      -2.20926165       0.00000000
Si      -0.53305767       3.49682769      -0.00543555       0.00000000
Si       1.23400075      -3.28488569      -0.94667503       0.00000000
Si       3.49227368      -1.00476720       1.14690165       0.00000000
Si      -3.12852708      -2.09278607       1.01713210       0.00000000
