10
Lattice="16.28999089631971 0.0 0.0 0.0 16.28999089631971 0.0 0.0 0.0 34.185847837958455" Properties=species:S:1:pos:R:3:initial_magmoms:R:1 pbc="T T T"
Si      -1.39878972      -1.23396750       1.50383769       0.00000000
Si       1.83819618      -1.44747401      -0.86090269       0.00000000
Si       1.48642992       1.41372765       1.58429755       0.00000000
Si      -1.09573056       0.55444644      -2.29961490       0.00000000
Si       0.93501342       1.32475167      -3.23893996       0.00000000
Si       1.66601088       3.00845349      -1.66136476       0.00000000
Si       0.18187785      -2.47703201       2.96157092       0.00000000
Si      -2.50825275       0.23526018       2.97983985       0.00000000
Si      -3.23887554      -2.19506284       0.10252341       0.00000000
Si       0.94004703      -3.33215927      -1.85871977       0.00000000
