10
Lattice="16.28999089631971 0.0 0.0 0.0 16.28999089631971 0.0 0.0 0.0 34.185847837958455" Properties=species:S:1:pos:R:3:initial_magmoms:R:1 pbc="T T T"
Si       2.03074398       0.77030523      -0.93932507       0.00000000
Si      -2.05423416       1.16885637       0.40804251       0.00000000
Si      -0.86472207      -1.49322611      -1.74905151       0.00000000
Si       1.09573056      -0.55444644       2.29961490       0.00000000
Si       1.22072373       1.52353854      -3.09966674       0.00000000
Si      -0.37279665      -0.22662648      -3.68017695       0.00000000
Si       0.62789805      -3.33338102      -1.51692947       0.00000000
Si       2.76174144       2.45400705       0.63825014       0.00000000
Si       2.93392674      -2.00192045       1.43871221       0.00000000
Si      -3.94605702      -0.45926397       0.02324639       0.00000000
