10
Lattice="16.28999089631971 0.0 0.0 0.0 16.28999089631971 0.0 0.0 0.0 34.185847837958455" Properties=species:S:1:pos:R:3:initial_magmoms:R:1 pbc="T T T"
Si      -2.03074398      -0.77030523       0.93932507       0.00000000
Si       0.73099746       1.68370182       1.57757520       0.00000000
Si      -0.81002025       0.75323331      -2.16034168       0.00000000
Si       2.34575253      -1.26675927      -0.55791335       0.00000000
Si       2.66351993       0.95154777      -1.39423640       0.00000000
Si       2.48337859       2.54896146       0.26753859       0.00000000
Si      -0.93501342      -1.32475167       3.23893996       0.00000000
Si       1.29235086       1.09972161      -3.33944641       0.00000000
Si       0.90318276      -2.77222568       2.37803728       0.00000000
Si      -2.89546605      -2.26353134      -0.80972644       0.00000000
