10
Lattice="16.28999089631971 0.0 0.0 0.0 16.28999089631971 0.0 0.0 0.0 34.185847837958455" Properties=species:S:1:pos:R:3:initial_magmoms:R:1 pbc="T T T"
Si      -1.20252780       1.73757285      -1.01535443       0.00000000
Si       1.98172737      -0.52509186      -1.13920983       0.00000000
Si      -1.35431802      -1.94064399      -0.24832614       0.00000000
Si       0.77555061       0.74349189       2.12584814       0.00000000
Si       2.75850040      -1.83503592       0.66850463       0.00000000
Si      -1.35386190       1.00668942       3.17880702       0.00000000
Si      -2.15946756      -2.50606989       1.87082157       0.00000000
Si       2.84440897      -0.40321008       2.51843863       0.00000000
Si      -0.18122625       3.85600590      -0.67858946       0.00000000
Si       2.03704821       3.40035831      -0.00991390       0.00000000
