10
Lattice="16.28999089631971 0.0 0.0 0.0 16.28999089631971 0.0 0.0 0.0 34.185847837958455" Properties=species:S:1:pos:R:3:initial_magmoms:R:1 pbc="T T T"
Si       0.88278768       2.19232449       0.16070776       0.00000000
Si      -0.77555061      -0.74349189      -2.12584814       0.00000000
Si      -2.12941251       0.26319753       1.05295889       0.00000000
Si       2.06885836      -1.14670197       0.39259050       0.00000000
Si       1.06769547      -2.67247224       1.87150529       0.00000000
Si       1.98294979      -2.57852781      -1.45734351       0.00000000
Si       1.26149760       2.65686642      -2.13576204       0.00000000
Si      -1.58091192       1.59786981       2.89397038       0.00000000
Si      -0.76331682       3.36179988       1.32801837       0.00000000
Si       1.20617676      -1.26858375      -3.26505797       0.00000000
