10
Lattice="16.28999089631971 0.0 0.0 0.0 16.28999089631971 0.0 0.0 0.0 34.185847837958455" Properties=species:S:1:pos:R:3:initial_magmoms:R:1 pbc="T T T"
Si       0.54850059       1.33467228       1.84101149       0.00000000
Si      -1.59246153      -1.76487489       0.03654469       0.00000000
Si      -1.12987440       1.75413978      -1.15510626       0.00000000
Si       2.12941251      -0.26319753      -1.05295889       0.00000000
Si       1.36609569       3.09860235       0.27505949       0.00000000
Si       1.35386190      -1.00668942      -3.17880702       0.00000000
Si       3.01220019       1.92912696      -0.89225113       0.00000000
Si      -0.80560566      -3.51275931      -1.30798546       0.00000000
Si      -1.42488630      -2.92346856       2.09049995       0.00000000
Si      -2.97098649       2.53861731       0.04803114       0.00000000
