10
Lattice="16.28999089631971 0.0 0.0 0.0 16.28999089631971 0.0 0.0 0.0 34.185847837958455" Properties=species:S:1:pos:R:3:initial_magmoms:R:1 pbc="T T T"
Si      -1.35918873      -1.85969898       0.60365404       0.00000000
Si       1.13678136      -0.51523641       2.03381978       0.00000000
Si      -0.58872060       2.26989747      -0.57213467       0.00000000
Si       0.94332132      -0.76452228      -2.09863619       0.00000000
Si       2.78288586      -1.68471180       0.86650917       0.00000000
Si      -2.95687935      -0.10707417      -1.89170913       0.00000000
Si      -2.15309817      -2.35659285      -1.52441618       0.00000000
Si       3.16159578      -1.22016987      -1.42996063       0.00000000
Si       1.17325467       1.45898127       3.25295617       0.00000000
Si      -0.07798023      -2.88295533      -2.43540116       0.00000000
