10
Lattice="16.28999089631971 0.0 0.0 0.0 16.28999089631971 0.0 0.0 0.0 34.185847837958455" Properties=species:S:1:pos:R:3:initial_magmoms:R:1 pbc="T T T"
Si      -1.36679616       0.89160057       1.68553417       0.00000000
Si      -1.43513271      -0.09058869      -1.88538475       0.00000000
Si       1.59808158       1.69898235      -0.54252971       0.00000000
Si       0.58872060      -2.26989747       0.57213467       0.00000000
Si      -2.36815875      -2.37697164      -1.31957446       0.00000000
Si       1.53204192      -3.03441975      -1.52650152       0.00000000
Si      -0.58715676      -0.07692138       3.77569226       0.00000000
Si       0.33304905       3.45003371      -1.64707507       0.00000000
Si       2.52319068       2.55048525       1.45662560       0.00000000
Si      -3.66024897       0.19230345       1.25137366       0.00000000
