10
Lattice="16.28999089631971 0.0 0.0 0.0 16.28999089631971 0.0 0.0 0.0 34.185847837958455" Properties=species:S:1:pos:R:3:initial_magmoms:R:1 pbc="T T T"
Si      -0.63224748       1.75545180      -1.37710928       0.00000000
Si      -1.39346289      -1.60594965       0.99135596       0.00000000
Si       1.68334411       0.68170392       1.57829311       0.00000000
Si       1.83124591      -0.69587622      -1.40411611       0.00000000
Si       2.71455650       1.29549550      -0.44838183       0.00000000
Si       2.13597479      -1.59369957       2.05641664       0.00000000
Si       2.74014809      -2.43902025      -0.10036971       0.00000000
Si       1.35956570       3.05436590      -1.52267270       0.00000000
Si       0.03463254      -2.47601484       2.75206485       0.00000000
Si      -2.12911929       3.12918587      -0.27724738       0.00000000
