10
Lattice="16.28999089631971 0.0 0.0 0.0 16.28999089631971 0.0 0.0 0.0 34.185847837958455" Properties=species:S:1:pos:R:3:initial_magmoms:R:1 pbc="T T T"
Si       1.42464195       0.04636134      -1.90121280       0.00000000
Si      -1.49262012       1.84015491      -0.23212204       0.00000000
Si      -1.48253661      -1.83443319       0.46075711       0.00000000
Si       1.40787954      -0.55322469       1.95782460       0.00000000
Si       1.67695776      -2.28299463      -2.21609882       0.00000000
Si      -3.18599820      -0.64547496       1.64833995       0.00000000
Si       0.09591552       1.42547015      -3.38522129       0.00000000
Si      -0.62789805       3.33338102       1.51692947       0.00000000
Si      -2.32795503      -2.57237019      -1.63220422       0.00000000
Si      -3.73756131       1.05967332       0.07917447       0.00000000
