10
Lattice="16.28999089631971 0.0 0.0 0.0 16.28999089631971 0.0 0.0 0.0 34.185847837958455" Properties=species:S:1:pos:R:3:initial_magmoms:R:1 pbc="T T T"
Si       1.75689279      -1.10451087      -1.12331340       0.00000000
Si      -1.01985174       1.58542425      -1.43597734       0.00000000
Si      -1.55505969      -1.83638799       0.10190807       0.00000000
Si       0.68170392       1.33419987       1.88811962       0.00000000
Si       1.87056441       2.86663275       0.06109014       0.00000000
Si      -1.01729421      -2.35287873       2.28588316       0.00000000
Si      -0.23350086      -0.43272756       3.49059379       0.00000000
Si       0.60611832      -2.07832707      -2.88791948       0.00000000
Si      -1.16325261      -3.12502473      -1.76710165       0.00000000
Si      -2.72331333       2.77438248      -0.24839451       0.00000000
