10
Lattice="16.28999089631971 0.0 0.0 0.0 16.28999089631971 0.0 0.0 0.0 34.185847837958455" Properties=species:S:1:pos:R:3:initial_magmoms:R:1 pbc="T T T"
Si       1.57752360       1.71593973      -0.30121167       0.00000000
Si      -0.22833693      -1.60120926      -1.71257519       0.00000000
Si      -1.81120528       1.58309478       0.39443653       0.00000000
Si       0.50712399      -1.46603484       1.90251187       0.00000000
Si      -0.90963360       1.93130982       2.59501497       0.00000000
Si       0.90306873       3.10671477       1.56649898       0.00000000
Si       0.96726762      -3.40824267      -0.73267150       0.00000000
Si      -0.58717305      -0.25373304       3.59358415       0.00000000
Si       1.31569443       2.37086289      -2.60110006       0.00000000
Si      -2.54095492      -2.09544786      -1.84901099       0.00000000
