10
Lattice="16.28999089631971 0.0 0.0 0.0 16.28999089631971 0.0 0.0 0.0 34.185847837958455" Properties=species:S:1:pos:R:3:initial_magmoms:R:1 pbc="T T T"
Si      -0.18014134       1.59741369       1.66177499       0.00000000
Si       2.17380276       0.92261673      -0.21390097       0.00000000
Si      -1.37116907       0.14817384      -1.94521001       0.00000000
Si      -0.31776740      -2.21830704       0.83632305       0.00000000
Si      -2.66351993      -0.95154777       1.39423640       0.00000000
Si       2.75296113       0.60023763       2.05501502       0.00000000
Si      -3.47354018      -0.19831446      -0.76610528       0.00000000
Si      -1.93252247       0.73215405       2.97181160       0.00000000
Si       2.35675575      -1.67754420       2.40083925       0.00000000
Si       3.26809980      -0.28968507      -1.90497325       0.00000000
