10
Lattice="16.28999089631971 0.0 0.0 0.0 16.28999089631971 0.0 0.0 0.0 34.185847837958455" Properties=species:S:1:pos:R:3:initial_magmoms:R:1 pbc="T T T"
Si       1.09429704      -1.21230180      -1.69107228       0.00000000
Si       0.57915837      -0.32237910       2.26891599       0.00000000
Si      -2.17380276      -0.92261673       0.21390097       0.00000000
Si      -0.32246055       2.18504286      -0.99856917       0.00000000
Si      -2.35394410       0.67479696       1.87567596       0.00000000
Si       0.58717305       0.25373304      -3.59358415       0.00000000
Si       0.18295299      -2.60016093       2.61474022       0.00000000
Si       3.39719805      -1.44550944      -0.94623061       0.00000000
Si      -1.25292254       3.55669344       0.72740688       0.00000000
Si      -1.22403223       1.83682782      -3.19914761       0.00000000
