10
Lattice="16.28999089631971 0.0 0.0 0.0 16.28999089631971 0.0 0.0 0.0 34.185847837958455" Properties=species:S:1:pos:R:3:initial_magmoms:R:1 pbc="T T T"
Si       0.90157168       0.34821504       2.20057844       0.00000000
Si       1.81120528      -1.58309478      -0.39443653       0.00000000
Si      -2.32475146      -0.79959465      -0.17810837       0.00000000
Si       0.11978200       2.37314349      -0.71192068       0.00000000
Si       2.71427401       1.52361999       1.17206245       0.00000000
Si      -1.83996106      -1.58746050      -2.38193447       0.00000000
Si      -3.04973791       1.51708770       0.25184728       0.00000000
Si       3.38872888       0.13284495      -0.69564821       0.00000000
Si      -1.50028114       3.32449578       0.70679280       0.00000000
Si      -2.32093960      -2.61127071       1.46783857       0.00000000
