10
Lattice="16.28999089631971 0.0 0.0 0.0 16.28999089631971 0.0 0.0 0.0 34.185847837958455" Properties=species:S:1:pos:R:3:initial_magmoms:R:1 pbc="T T T"
Si       1.35718180      -1.35742941       1.36059750       0.00000000
Si      -1.36077803       1.35977517       1.36059750       0.00000000
Si       1.35144772       1.36392912      -1.37028236       0.00000000
Si      -1.33787571      -1.37849238      -1.36925678       0.00000000
Si       2.73901363      -0.04657311      -2.68244191       0.00000000
Si      -2.71302849       2.71533123       0.00916181       0.00000000
Si      -2.71498329      -2.71388142      -0.00146999       0.00000000
Si      -0.00053268      -2.71446786       2.71907548       0.00000000
Si       2.71454605       0.00048870       2.71907548       0.00000000
Si      -2.71486926       0.00071676       2.71897293       0.00000000
