10
Lattice="16.28999089631971 0.0 0.0 0.0 16.28999089631971 0.0 0.0 0.0 34.185847837958455" Properties=species:S:1:pos:R:3:initial_magmoms:R:1 pbc="T T T"
Si      -1.35742941       1.35702216      -1.35789682       0.00000000
Si       1.35744570       1.35827649       1.35683706       0.00000000
Si       1.35798327      -1.35782037      -1.35776008       0.00000000
Si      -1.35867559      -1.35954711       1.35642683       0.00000000
Si      -2.71128221      -0.00065160       2.71623806       0.00000000
Si      -0.00008145       2.71259451      -2.71552015       0.00000000
Si      -0.00017919      -2.71464705       2.71353737       0.00000000
Si       2.71448415      -0.00114030      -2.71487062       0.00000000
Si      -2.71413069      -2.71547784       0.00006837       0.00000000
Si      -2.71467305       2.71495656      -0.00075209       0.00000000
