10
Lattice="16.28999089631971 0.0 0.0 0.0 16.28999089631971 0.0 0.0 0.0 34.185847837958455" Properties=species:S:1:pos:R:3:initial_magmoms:R:1 pbc="T T T"
Si      -1.35545510      -1.35593073      -1.35635846       0.00000000
Si       1.35849641      -1.35509994       1.35711055       0.00000000
Si      -1.35260661       1.35889551       1.35981123       0.00000000
Si       1.35867559       1.35954711      -1.35642683       0.00000000
Si       0.01052497      -2.70391194       2.69131656       0.00000000
Si      -2.71275645       0.00195480      -2.71428946       0.00000000
Si       0.00158013      -2.71322982      -2.71418691       0.00000000
Si       2.71568147      -2.71200807       0.00058116       0.00000000
Si      -2.71456464      -2.71388142       0.00201697       0.00000000
Si       2.71055012       0.00918756       2.71794735       0.00000000
