10
Lattice="16.28999089631971 0.0 0.0 0.0 16.28999089631971 0.0 0.0 0.0 34.185847837958455" Properties=species:S:1:pos:R:3:initial_magmoms:R:1 pbc="T T T"
Si       1.67143545       0.41322843       1.63281956       0.00000000
Si      -0.06095718      -2.50088967       0.20781589       0.00000000
Si      -1.79057141      -0.23048721       1.92743336       0.00000000
Si       1.23657390       2.70544320      -0.87662819       0.00000000
Si       3.16540764       0.09871740      -0.32230435       0.00000000
Si       1.41576390      -2.06110854       2.09767898       0.00000000
Si       1.16918217      -2.37576618      -1.91864760       0.00000000
Si       2.22250986       0.72971055      -2.41960729       0.00000000
Si      -2.84093432       0.42578802      -2.54855638       0.00000000
Si      -0.21835279       3.48855237       1.86220673       0.00000000
