10
Lattice="16.28999089631971 0.0 0.0 0.0 16.28999089631971 0.0 0.0 0.0 34.185847837958455" Properties=species:S:1:pos:R:3:initial_magmoms:R:1 pbc="T T T"
Si      -1.09579409       1.77051123       1.04646357       0.00000000
Si       0.51893424       0.42093360      -2.28956425       0.00000000
Si       2.08565757      -0.70255512       0.93385533       0.00000000
Si      -1.88004030      -1.55201346       0.06854266       0.00000000
Si      -0.92146014       0.88282026       3.21747124       0.00000000
Si      -3.06611099       1.78701300      -0.16334007       0.00000000
Si       2.15899515      -1.30277646      -2.71025553       0.00000000
Si       2.78091477      -2.40728733      -0.55931497       0.00000000
Si       3.63154599       1.09046889       0.73940612       0.00000000
Si      -3.94889867      -0.40531149      -0.32404783       0.00000000
