10
Lattice="16.28999089631971 0.0 0.0 0.0 16.28999089631971 0.0 0.0 0.0 34.185847837958455" Properties=species:S:1:pos:R:3:initial_magmoms:R:1 pbc="T T T"
Si      -0.17433395       0.88769097      -2.17100767       0.00000000
Si      -1.62006314       0.95135229       1.41871348       0.00000000
Si       2.00674881       1.06393248       0.62084953       0.00000000
Si      -0.11978200      -2.37314349       0.71192068       0.00000000
Si       2.59449201      -0.84952350       1.88398313       0.00000000
Si      -3.16951991      -0.85605579       0.96376796       0.00000000
Si       0.92146014      -0.88282026      -3.21747124       0.00000000
Si       0.78178968      -2.02492845       2.91249912       0.00000000
Si       0.37932894       3.21481521      -2.08608997       0.00000000
Si       1.58421879       3.29349591       1.39136478       0.00000000
