10
Lattice="16.28999089631971 0.0 0.0 0.0 16.28999089631971 0.0 0.0 0.0 34.185847837958455" Properties=species:S:1:pos:R:3:initial_magmoms:R:1 pbc="T T T"
Si      -2.14610717      -0.93937914       0.34743097       0.00000000
Si       0.93046199      -1.37165058      -1.72597605       0.00000000
Si      -0.58296697       2.17409598      -0.97238280       0.00000000
Si       0.70280924       0.10076994       2.52278024       0.00000000
Si      -1.10102155      -2.88189648       1.14826908       0.00000000
Si      -2.98911467       0.26428896       2.20023658       0.00000000
Si       1.25292254      -3.55669344      -0.72740688       0.00000000
Si      -1.47139083       1.60463016      -3.21976169       0.00000000
Si       2.74316432      -0.19624563      -2.75449204       0.00000000
Si       2.56957808       1.55253474       2.56961487       0.00000000
