10
Lattice="16.28999089631971 0.0 0.0 0.0 16.28999089631971 0.0 0.0 0.0 34.33025523377368" Properties=species:S:1:pos:R:3:initial_magmoms:R:1 pbc="T T T"
Si       1.35708732       1.35671102      -1.35642347       0.00000000
Si      -1.35778779      -1.35798194      -1.35611450       0.00000000
Si       1.35734796      -1.35941046       1.36016547       0.00000000
Si      -1.36058967       1.35783503       1.35889525       0.00000000
Si       2.71353933      -0.00091224      -2.71332757       0.00000000
Si      -0.00026064       2.71422188      -2.71425449       0.00000000
Si      -2.71351164       2.71506896       0.00020598       0.00000000
Si       0.00073305      -2.71543779      -2.71325891       0.00000000
Si      -2.71584925      -0.00082590      -2.71401417       0.00000000
Si      -2.71536870      -2.71550295       0.00175084       0.00000000
