10
Lattice="16.28999089631971 0.0 0.0 0.0 16.28999089631971 0.0 0.0 0.0 34.33025523377368" Properties=species:S:1:pos:R:3:initial_magmoms:R:1 pbc="T T T"
Si       1.32188463       1.37534841      -1.39137169       0.00000000
Si       1.37668419      -1.35069659       1.40736960       0.00000000
Si      -1.23033483       1.39704669       1.58224802       0.00000000
Si      -1.40763519      -1.35392706      -1.47215083       0.00000000
Si      -2.76737126      -0.40203394       1.65314003       0.00000000
Si       2.50132950      -0.15262916      -2.81872151       0.00000000
Si      -0.22364541       2.58418044      -2.80433713       0.00000000
Si       2.60661177      -2.86815491       0.05709125       0.00000000
Si      -2.85934623       2.62241307       0.20419647       0.00000000
Si       2.74857912       2.76806196       0.09557548       0.00000000
