10
Lattice="16.28999089631971 0.0 0.0 0.0 16.28999089631971 0.0 0.0 0.0 34.33025523377368" Properties=species:S:1:pos:R:3:initial_magmoms:R:1 pbc="T T T"
Si      -1.50788385       0.55726787       1.78781770       0.00000000
Si       1.12107780       1.88666219      -1.02180629       0.00000000
Si      -1.47395178      -1.17381651      -1.56274842       0.00000000
Si       2.01481236      -1.24036230       0.75032248       0.00000000
Si       2.13298002       0.45630245      -2.76190491       0.00000000
Si      -2.15974449      -1.67249823       2.25436613       0.00000000
Si       2.58268176       2.43649856       1.09008920       0.00000000
Si      -2.69866656      -2.58934830      -0.12544282       0.00000000
Si       2.99823966       0.33634289       2.23122753       0.00000000
Si       3.42546120      -1.01288776      -1.47112092       0.00000000
