10
Lattice="16.28999089631971 0.0 0.0 0.0 16.28999089631971 0.0 0.0 0.0 34.33025523377368" Properties=species:S:1:pos:R:3:initial_magmoms:R:1 pbc="T T T"
Si       1.70092035       1.45402911       0.62951424       0.00000000
Si      -1.78566093       1.40374188      -0.60778318       0.00000000
Si       0.85967217      -0.71407867      -2.09383777       0.00000000
Si      -0.37572885      -1.01478229       2.11968846       0.00000000
Si       0.49953285       2.38255911       2.41547811       0.00000000
Si      -2.64919546      -0.20011288      -2.17324369       0.00000000
Si      -1.03707027      -1.80927233      -2.88878960       0.00000000
Si       3.27958425      -0.02233359       1.42226894       0.00000000
Si       2.13281712       2.53957842      -1.41104294       0.00000000
Si      -1.12086603       0.87428430       3.32862908       0.00000000
