10
Lattice="16.28999089631971 0.0 0.0 0.0 16.28999089631971 0.0 0.0 0.0 34.33025523377368" Properties=species:S:1:pos:R:3:initial_magmoms:R:1 pbc="T T T"
Si      -1.35068535       1.34692236      -1.36167600       0.00000000
Si       1.35780408       1.35539316       1.35570254       0.00000000
Si       1.35084825      -1.35304740      -1.36514336       0.00000000
Si      -1.35770634      -1.35933534       1.35570254       0.00000000
Si      -0.00050499       2.71371852       2.71360221       0.00000000
Si       2.71480995      -0.00187335       2.71339623       0.00000000
Si      -2.71362078      -2.71570590      -0.00367334       0.00000000
Si      -2.71555929      -0.00149868       2.71408284       0.00000000
Si      -2.71552671       2.71420722      -0.00346736       0.00000000
Si      -0.00035838      -2.71684620       2.71353355       0.00000000
