10
Lattice="16.28999089631971 0.0 0.0 0.0 16.28999089631971 0.0 0.0 0.0 34.33025523377368" Properties=species:S:1:pos:R:3:initial_magmoms:R:1 pbc="T T T"
Si       1.35586557       1.35624024      -1.35769369       0.00000000
Si       1.35327546      -1.36032903       1.35882659       0.00000000
Si      -1.35930276      -1.35873261      -1.35755637       0.00000000
Si      -1.36448298       1.35687555       1.36033712       0.00000000
Si       2.71399545       2.71251306       0.00054928       0.00000000
Si       2.71244790      -0.00001629      -2.71511274       0.00000000
Si      -0.00114030       2.71350675      -2.71538739       0.00000000
Si       2.71417464      -2.71577758      -0.00010299       0.00000000
Si      -2.71471221       2.71538010      -0.00140754       0.00000000
Si      -0.00285075      -2.71635587      -2.71446047       0.00000000
