10
Lattice="16.28999089631971 0.0 0.0 0.0 16.28999089631971 0.0 0.0 0.0 34.33025523377368" Properties=species:S:1:pos:R:3:initial_magmoms:R:1 pbc="T T T"
Si      -1.35022923       1.35850455      -1.36174467       0.00000000
Si      -1.35057132      -1.33636644       1.39253892       0.00000000
Si       1.36448298      -1.35687555      -1.36033712       0.00000000
Si       1.35200484       1.37660274       1.38179355       0.00000000
Si       0.19495872      -2.54519847       2.80550436       0.00000000
Si      -2.70730026       2.71378368      -0.00157919       0.00000000
Si      -2.71249677      -2.71448415      -0.00257477       0.00000000
Si      -2.71002069      -0.00026064      -2.71734421       0.00000000
Si       0.00503361       2.71495656      -2.71782483       0.00000000
Si       2.71736748       2.71564074      -0.00109857       0.00000000
