10
Lattice="16.28999089631971 0.0 0.0 0.0 16.28999089631971 0.0 0.0 0.0 34.33025523377368" Properties=species:S:1:pos:R:3:initial_magmoms:R:1 pbc="T T T"
Si      -0.99253341       2.08106379      -0.27045390       0.00000000
Si       2.20701807       0.20342952      -0.69834644       0.00000000
Si      -0.43189677      -1.08554931       2.04055718       0.00000000
Si      -1.05155208      -1.14448653      -1.77391394       0.00000000
Si      -3.25664793       1.23082353       0.14562902       0.00000000
Si      -1.27314495      -3.25365709      -0.68279483       0.00000000
Si      -0.00917127       2.74100427      -2.32512083       0.00000000
Si      -2.13281712      -2.53957842       1.41104294       0.00000000
Si       3.29507604       1.30297194       1.05009443       0.00000000
Si       2.11761855       1.63735677      -2.65427950       0.00000000
