10
Lattice="16.28999089631971 0.0 0.0 0.0 16.28999089631971 0.0 0.0 0.0 34.33025523377368" Properties=species:S:1:pos:R:3:initial_magmoms:R:1 pbc="T T T"
Si       1.02864834      -2.10481461       0.15376530       0.00000000
Si      -1.20246264       1.05964821       1.73333556       0.00000000
Si       1.20225087       1.72745676      -1.12836746       0.00000000
Si      -2.16453375      -0.65733408      -0.77685978       0.00000000
Si      -2.09808684       2.70609480       0.23828643       0.00000000
Si      -2.66803973      -1.99687707       1.15562570       0.00000000
Si      -0.70503120      -3.43111383       1.07790196       0.00000000
Si      -0.30112065       3.54670767      -1.38907156       0.00000000
Si       3.01259115      -2.06410590       1.38924321       0.00000000
Si       0.09744678       2.32277481       3.14579088       0.00000000
