10
Lattice="16.28999089631971 0.0 0.0 0.0 16.28999089631971 0.0 0.0 0.0 34.33025523377368" Properties=species:S:1:pos:R:3:initial_magmoms:R:1 pbc="T T T"
Si       1.00036890      -0.81215424      -1.94226961       0.00000000
Si       1.98394281       0.04070871       1.23547792       0.00000000
Si      -1.02864834       2.10481461      -0.15376530       0.00000000
Si      -1.73367954      -1.32629922       0.92413666       0.00000000
Si       3.39185493       0.64409031      -0.67850354       0.00000000
Si      -3.19318209       1.44748053      -0.93062508       0.00000000
Si       2.36876148      -2.65903299      -0.85108183       0.00000000
Si      -1.72501326      -3.19889988      -0.45762256       0.00000000
Si       2.39249601       0.85030542      -2.76365575       0.00000000
Si       2.72613150      -2.21081364       1.53178251       0.00000000
