10
Lattice="16.28999089631971 0.0 0.0 0.0 16.28999089631971 0.0 0.0 0.0 34.33025523377368" Properties=species:S:1:pos:R:3:initial_magmoms:R:1 pbc="T T T"
Si      -1.29990942      -1.26312660      -1.41245533       0.00000000
Si      -1.51532838       1.18087839       1.35047060       0.00000000
Si       1.22367222      -1.54771290       1.33996554       0.00000000
Si       1.42408809       1.37031480      -1.44946336       0.00000000
Si      -2.19553362       0.38331999      -2.90750445       0.00000000
Si      -0.15405453       2.52174087       2.72974774       0.00000000
Si       2.66062941       2.61289971       0.08929648       0.00000000
Si       2.56670127      -0.19948734       2.72995372       0.00000000
Si      -2.72117608       2.62327644      -0.23930604       0.00000000
Si      -2.64892505      -2.78247861      -0.06104266       0.00000000
