10
Lattice="16.28999089631971 0.0 0.0 0.0 16.28999089631971 0.0 0.0 0.0 34.33025523377368" Properties=species:S:1:pos:R:3:initial_magmoms:R:1 pbc="T T T"
Si       1.35547461       1.35610992      -1.35765936       0.00000000
Si       1.35303111      -1.35804843       1.35941021       0.00000000
Si      -1.36244673       1.35624024       1.35618316       0.00000000
Si      -1.35930276      -1.35873261      -1.35731606       0.00000000
Si      -0.00166158       2.71350675      -2.71452913       0.00000000
Si      -2.71479366       2.71327869      -0.00075527       0.00000000
Si       2.71366965      -0.00182448      -2.71449480       0.00000000
Si       2.71437012       2.71511946      -0.00072094       0.00000000
Si      -2.71456560      -2.71518462      -0.00123589       0.00000000
Si      -2.71599912      -0.00133578      -2.71452913       0.00000000
