10
Lattice="16.28999089631971 0.0 0.0 0.0 16.28999089631971 0.0 0.0 0.0 34.33025523377368" Properties=species:S:1:pos:R:3:initial_magmoms:R:1 pbc="T T T"
Si      -1.57889196      -0.83427606       1.50654976       0.00000000
Si       1.38297213      -1.32455619      -1.40033189       0.00000000
Si      -1.31988096       1.38530160      -1.40486349       0.00000000
Si       1.15067673       1.44153468       1.51070373       0.00000000
Si      -2.65828365      -2.51203203       0.17261262       0.00000000
Si       2.59543683       2.66105295       0.00861690       0.00000000
Si      -3.34210527       0.98057655       1.39435843       0.00000000
Si      -2.59693551       2.77814547       0.01620389       0.00000000
Si       2.77135254      -2.61236214      -0.01156930       0.00000000
Si       0.02678076      -2.69099397      -2.76458267       0.00000000
