10
Lattice="16.28999089631971 0.0 0.0 0.0 16.28999089631971 0.0 0.0 0.0 34.33025523377368" Properties=species:S:1:pos:R:3:initial_magmoms:R:1 pbc="T T T"
Si       2.31137181      -0.07866441       0.80442699       0.00000000
Si      -1.55302344       0.05286105       1.93657078       0.00000000
Si      -1.23841467      -0.13406670      -2.32014294       0.00000000
Si      -0.15899040       3.20574168      -0.49857858       0.00000000
Si       1.49115402       2.14174404      -2.31598897       0.00000000
Si       2.93848794      -2.06982369      -0.56912729       0.00000000
Si      -2.31164874      -2.15993997       1.87141192       0.00000000
Si      -2.57269599       2.68524360      -0.16856165       0.00000000
Si      -0.27813546      -3.39012819       1.57503866       0.00000000
Si       0.34047729       0.70020936      -3.82669270       0.00000000
