10
Lattice="16.28999089631971 0.0 0.0 0.0 16.28999089631971 0.0 0.0 0.0 34.33025523377368" Properties=species:S:1:pos:R:3:initial_magmoms:R:1 pbc="T T T"
Si      -1.02232782      -0.51790797      -2.04357825       0.00000000
Si      -1.10543940       1.89600939       0.82646703       0.00000000
Si       2.33820144       0.36683451       0.00346736       0.00000000
Si      -0.02085120      -1.55997927       1.79272693       0.00000000
Si      -0.35108208       1.69137441       3.00849927       0.00000000
Si       3.28528575      -1.58811210      -0.85904646       0.00000000
Si       3.00535839       0.21732489       2.25910371       0.00000000
Si      -2.97790974       0.82564236      -2.28934868       0.00000000
Si      -1.13583654      -0.58876947       3.63327593       0.00000000
Si      -1.78095312      -2.73070899      -2.10873711       0.00000000
