10
Lattice="16.28999089631971 0.0 0.0 0.0 16.28999089631971 0.0 0.0 0.0 34.33025523377368" Properties=species:S:1:pos:R:3:initial_magmoms:R:1 pbc="T T T"
Si       1.71471798       0.97956657      -1.14324723       0.00000000
Si       1.26718281      -1.45536489       1.28830534       0.00000000
Si      -1.45681470       1.28132253       1.27830150       0.00000000
Si      -1.23654132      -1.24258491      -1.53875984       0.00000000
Si      -0.09821241       2.62161486       2.64014229       0.00000000
Si       2.61851976      -0.09285300       2.64374697       0.00000000
Si      -2.66062941      -2.61289971      -0.08929648       0.00000000
Si       0.84685194       2.31849054      -2.81684163       0.00000000
Si       2.80062567      -2.51599050      -0.17027816       0.00000000
Si      -2.63593377       2.73310362      -0.19635544       0.00000000
