10
Lattice="16.28999089631971 0.0 0.0 0.0 16.28999089631971 0.0 0.0 0.0 34.33025523377368" Properties=species:S:1:pos:R:3:initial_magmoms:R:1 pbc="T T T"
Si       1.35384561      -1.35681039       1.35930722       0.00000000
Si       1.35619137       1.35745273      -1.35656079       0.00000000
Si      -1.35858600      -1.35742941      -1.35666378       0.00000000
Si      -1.35860229       1.35628797       1.35999382       0.00000000
Si       2.71383255       0.00000000      -2.71356788       0.00000000
Si       2.71466334      -2.71316466       0.00006866       0.00000000
Si      -0.00241092       2.71478619      -2.71349922       0.00000000
Si      -0.00136836      -2.71477737      -2.71373953       0.00000000
Si      -2.71521720       0.00026064      -2.71343056       0.00000000
Si      -2.71450044      -2.71500543       0.00003433       0.00000000
