10
Lattice="16.28999089631971 0.0 0.0 0.0 16.28999089631971 0.0 0.0 0.0 34.33025523377368" Properties=species:S:1:pos:R:3:initial_magmoms:R:1 pbc="T T T"
Si      -1.34730838       1.34824185       1.35985650       0.00000000
Si       1.36809936       1.34087877      -1.36267845       0.00000000
Si       1.36873467      -1.36671471       1.35388303       0.00000000
Si      -1.36106927      -1.36904418      -1.39668602       0.00000000
Si       2.12970573      -0.61915032      -2.50448621       0.00000000
Si       0.37686915      -2.46189304      -2.70189559       0.00000000
Si      -2.70295802       2.69879688      -0.00051495       0.00000000
Si       0.00884710       2.70404226       2.71394551       0.00000000
Si      -2.70515717      -0.00887805       2.71442614       0.00000000
Si       2.73167010       2.69591355      -0.00411963       0.00000000
