10
Lattice="16.28999089631971 0.0 0.0 0.0 16.28999089631971 0.0 0.0 0.0 34.33025523377368" Properties=species:S:1:pos:R:3:initial_magmoms:R:1 pbc="T T T"
Si       1.78566093      -1.40374188       0.60778318       0.00000000
Si      -1.87962817       0.13678713       1.42065542       0.00000000
Si      -0.86353453      -1.60385476      -1.56546051       0.00000000
Si       0.66183012       2.36666007      -0.65763074       0.00000000
Si       0.75961899       1.12842459      -2.90465019       0.00000000
Si      -3.04058456       1.67127255       0.06292739       0.00000000
Si       1.17887472       2.79596673       1.97543265       0.00000000
Si      -1.02179677      -0.33783831      -3.52492959       0.00000000
Si       3.48658128       0.05028723       1.23729742       0.00000000
Si       2.64533310      -2.11782055      -1.48605459       0.00000000
