10
Lattice="16.28999089631971 0.0 0.0 0.0 16.28999089631971 0.0 0.0 0.0 34.33025523377368" Properties=species:S:1:pos:R:3:initial_magmoms:R:1 pbc="T T T"
Si       1.52388063       0.64321947       1.63477334       0.00000000
Si      -1.78650801       1.48274905      -0.36359194       0.00000000
Si       1.30003974      -0.03994308      -2.00509401       0.00000000
Si      -1.24621758      -1.91897829       0.72656593       0.00000000
Si       0.12093696      -3.42985950      -0.40619581       0.00000000
Si      -0.01544292      -1.16660835      -3.60701327       0.00000000
Si      -3.36111570      -1.82822670      -0.29572098       0.00000000
Si      -2.64618018       2.19682772       1.73024583       0.00000000
Si       3.51820017       1.44159725       0.64561514       0.00000000
Si       2.41831566      -3.02278869      -0.24762427       0.00000000
