10
Lattice="16.28999089631971 0.0 0.0 0.0 16.28999089631971 0.0 0.0 0.0 34.33025523377368" Properties=species:S:1:pos:R:3:initial_magmoms:R:1 pbc="T T T"
Si      -0.98736948      -1.61562591      -1.39017013       0.00000000
Si       2.09548044       0.30040389      -1.03052618       0.00000000
Si      -0.63982233       2.24017052       0.35947230       0.00000000
Si       0.01816335      -1.11702159       2.12188560       0.00000000
Si       1.71128079       1.95243048      -2.64490733       0.00000000
Si       3.37167162       1.38292326       0.71225020       0.00000000
Si       0.82080423       3.48370514      -1.12716590       0.00000000
Si      -1.05881742      -0.60976728      -3.55311474       0.00000000
Si       0.72423711      -3.09624030      -2.01144511       0.00000000
Si       1.59544260      -3.02169726       1.64153640       0.00000000
