10
Lattice="16.28999089631971 0.0 0.0 0.0 16.28999089631971 0.0 0.0 0.0 34.33025523377368" Properties=species:S:1:pos:R:3:initial_magmoms:R:1 pbc="T T T"
Si      -1.35568638       1.35267762       1.35161723       0.00000000
Si       1.33972218       1.35020154      -1.37873472       0.00000000
Si       1.35731538      -1.35921243       1.35384870       0.00000000
Si      -1.35883035      -1.33899143      -1.37256213       0.00000000
Si       0.09293445      -2.64675263      -2.66563595       0.00000000
Si       2.50398477      -0.14665235      -2.80577900       0.00000000
Si      -0.00079821       2.71440759       2.71123342       0.00000000
Si       2.71469592      -0.00173163       2.71119909       0.00000000
Si      -2.71609686      -0.00193199       2.71188570       0.00000000
Si       0.00014661      -2.71671818       2.71181704       0.00000000
