10
Lattice="16.28999089631971 0.0 0.0 0.0 16.28999089631971 0.0 0.0 0.0 34.33025523377368" Properties=species:S:1:pos:R:3:initial_magmoms:R:1 pbc="T T T"
Si       0.74513718      -1.88906659      -1.20894061       0.00000000
Si      -2.07086625       1.11296538      -0.26180267       0.00000000
Si       1.62039888       1.50827481      -0.91315097       0.00000000
Si       0.42389838      -0.53981802       2.31550835       0.00000000
Si      -1.25112087       3.28434093      -0.37234616       0.00000000
Si       1.12086603      -0.87428430      -3.32862908       0.00000000
Si       2.60086140      -1.54606109       2.00224459       0.00000000
Si      -2.54442307       0.66624471      -2.51575684       0.00000000
Si      -0.66101562      -3.57843149      -0.31628482       0.00000000
Si       2.93982372      -2.14015251      -0.41972194       0.00000000
