10
Lattice="16.28999089631971 0.0 0.0 0.0 16.28999089631971 0.0 0.0 0.0 34.33025523377368" Properties=species:S:1:pos:R:3:initial_magmoms:R:1 pbc="T T T"
Si      -1.29248118       1.46919021      -1.29078399       0.00000000
Si       1.95693399       1.38282063       0.05461947       0.00000000
Si       1.29569031      -1.55494144      -1.59985945       0.00000000
Si      -1.41064884      -0.22747454       2.22144340       0.00000000
Si       0.93773385      -3.21995863       1.09376254       0.00000000
Si      -2.34299070      -0.27272474      -2.86901536       0.00000000
Si       3.69991512      -0.35122447       0.09066625       0.00000000
Si      -2.30438340       2.89954995       0.44931463       0.00000000
Si       0.23771997       2.45123286      -2.83441045       0.00000000
Si       2.83094136      -2.55646693      -0.19046436       0.00000000
