10
Lattice="16.28999089631971 0.0 0.0 0.0 16.28999089631971 0.0 0.0 0.0 34.33025523377368" Properties=species:S:1:pos:R:3:initial_magmoms:R:1 pbc="T T T"
Si      -1.52388063      -0.64321947      -1.63477334       0.00000000
Si      -0.89047656       1.53127466       1.51774143       0.00000000
Si       0.38419965      -1.65202659       1.61438115       0.00000000
Si       1.99431954       0.79837779      -0.98915820       0.00000000
Si       1.10877885       2.61182294       2.08776131       0.00000000
Si      -1.71128079      -1.95243048       2.64490733       0.00000000
Si      -0.22384089      -0.68316255      -3.63986735       0.00000000
Si       2.98605474       2.19274640       0.64702268       0.00000000
Si       1.66039083      -0.56950722       3.35715754       0.00000000
Si       0.98435583      -3.64869189       0.47413542       0.00000000
