10
Lattice="16.28999089631971 0.0 0.0 0.0 16.28999089631971 0.0 0.0 0.0 34.33025523377368" Properties=species:S:1:pos:R:3:initial_magmoms:R:1 pbc="T T T"
Si      -0.17787051       0.96130548      -2.08484324       0.00000000
Si       0.37374147      -2.22002468      -0.81544701       0.00000000
Si      -2.05990308       0.77742396       1.17354610       0.00000000
Si       1.99589967       1.04417271       1.18545871       0.00000000
Si      -2.17712592      -0.11924280      -2.65486311       0.00000000
Si       0.34982775      -3.33693224       1.36236261       0.00000000
Si       1.15756740       3.27126006       1.39295088       0.00000000
Si       2.63813292      -2.24828783      -1.49443118       0.00000000
Si      -0.49651920       3.23718138      -2.19617632       0.00000000
Si       1.69940538       0.54222894      -3.52558186       0.00000000
