10
Lattice="16.28999089631971 0.0 0.0 0.0 16.28999089631971 0.0 0.0 0.0 34.33025523377368" Properties=species:S:1:pos:R:3:initial_magmoms:R:1 pbc="T T T"
Si       1.70280999       1.05116112       1.23190757       0.00000000
Si      -1.85795595       1.47882249      -0.08987666       0.00000000
Si      -0.32070123      -2.10934323       1.07838258       0.00000000
Si       1.11511566      -0.05256783      -2.12140498       0.00000000
Si      -3.70100655      -0.04445541       0.04305016       0.00000000
Si       3.51352494      -0.51939036       1.29109296       0.00000000
Si      -0.49521600      -1.60673157       3.38901603       0.00000000
Si       2.79834507       2.58453882      -0.21157748       0.00000000
Si       1.35423657      -3.55877856       0.24779592       0.00000000
Si       2.08883412       2.08727028      -2.44949941       0.00000000
