10
Lattice="16.28999089631971 0.0 0.0 0.0 16.28999089631971 0.0 0.0 0.0 34.33025523377368" Properties=species:S:1:pos:R:3:initial_magmoms:R:1 pbc="T T T"
Si      -2.20701807      -0.20342952       0.69834644       0.00000000
Si       1.08805797       1.09954242       1.74844088       0.00000000
Si       1.28993994      -1.86137685      -0.64201046       0.00000000
Si      -0.08939952       1.43392725      -1.95593305       0.00000000
Si       3.11639103      -0.12834891       1.39003281       0.00000000
Si       3.29090580      -0.63096057      -0.92060064       0.00000000
Si      -3.25857015      -1.34791605      -1.07556750       0.00000000
Si       0.12502575      -2.80288998      -2.41661101       0.00000000
Si      -1.73382615      -1.41765354      -2.96689098       0.00000000
Si       0.24568578       3.29978385       1.70099644       0.00000000
