10
Lattice="16.28999089631971 0.0 0.0 0.0 16.28999089631971 0.0 0.0 0.0 34.33025523377368" Properties=species:S:1:pos:R:3:initial_magmoms:R:1 pbc="T T T"
Si       1.20907638      -1.43747847       1.41090562       0.00000000
Si       1.36042677       1.35335691      -1.36184766       0.00000000
Si      -1.35905841      -1.36000323      -1.36318654       0.00000000
Si      -1.27076661       1.40178531       1.46566241       0.00000000
Si       2.36791440       0.11956860       2.73481832       0.00000000
Si      -2.70254358       2.71164873       0.01695916       0.00000000
Si       2.70148473      -2.71471221       0.00456593       0.00000000
Si      -2.70624141      -2.71322982      -0.00257477       0.00000000
Si       2.70837540       2.72154328       0.01977424       0.00000000
Si       0.00171045       2.71217164      -2.72163550       0.00000000
