10
Lattice="16.28999089631971 0.0 0.0 0.0 16.28999089631971 0.0 0.0 0.0 34.33025523377368" Properties=species:S:1:pos:R:3:initial_magmoms:R:1 pbc="T T T"
Si       1.35563751      -1.35615879      -1.35992516       0.00000000
Si      -1.36042677      -1.35335691       1.36184766       0.00000000
Si      -1.35871632       1.35881473      -1.35978784       0.00000000
Si       1.34794863       1.36818637       1.38162189       0.00000000
Si       2.60227863      -0.10114461       2.74968333       0.00000000
Si       2.71437012      -2.71269225      -0.00144187       0.00000000
Si       2.71262709       2.71532213       0.00157919       0.00000000
Si       2.71287144       0.00066828      -2.71720689       0.00000000
Si      -0.00184077      -2.71401174      -2.71775617       0.00000000
Si      -0.00167787       2.71551761      -2.71730988       0.00000000
