10
Lattice="16.28999089631971 0.0 0.0 0.0 16.28999089631971 0.0 0.0 0.0 34.33025523377368" Properties=species:S:1:pos:R:3:initial_magmoms:R:1 pbc="T T T"
Si      -1.35615548      -1.35580041      -1.35408901       0.00000000
Si      -1.35627758       1.35798327       1.35735039       0.00000000
Si       1.35794906      -1.35654975       1.35769369       0.00000000
Si       1.35798164       1.35915615      -1.35985650       0.00000000
Si      -0.00884710      -2.70404226      -2.71394551       0.00000000
Si      -2.71180512      -0.00524538      -2.71446047       0.00000000
Si      -2.71400427      -2.71292031       0.00048062       0.00000000
Si       0.00255101      -2.71353933       2.71377386       0.00000000
Si      -2.71392282       0.00097740       2.71446047       0.00000000
Si      -2.71356444       2.71508688      -0.00027464       0.00000000
