10
Lattice="16.28999089631971 0.0 0.0 0.0 16.28999089631971 0.0 0.0 0.0 34.33025523377368" Properties=species:S:1:pos:R:3:initial_magmoms:R:1 pbc="T T T"
Si       1.35865116      -1.35617508      -1.36184766       0.00000000
Si      -1.35731538       1.36047564      -1.36102373       0.00000000
Si       1.37228589       1.34338743       1.36819876       0.00000000
Si      -1.36467846      -1.34713576       1.38004270       0.00000000
Si       0.01945026       2.70814734       2.70972289       0.00000000
Si       2.71129131      -2.71271573      -0.00212848       0.00000000
Si      -2.71262709      -2.71532213      -0.00157919       0.00000000
Si      -2.71437012       2.71432125      -0.00604213       0.00000000
Si       2.71800507       2.71407690      -0.00212848       0.00000000
Si       2.71512657       0.00084708      -2.71799649       0.00000000
