10
Lattice="16.28999089631971 0.0 0.0 0.0 16.28999089631971 0.0 0.0 0.0 34.33025523377368" Properties=species:S:1:pos:R:3:initial_magmoms:R:1 pbc="T T T"
Si      -1.61644041      -0.72987738       1.60524930       0.00000000
Si       0.42470931       2.01944198      -1.24749351       0.00000000
Si       1.72144805      -1.72247595      -0.17700689       0.00000000
Si       1.93016693       0.40908100       1.66872598       0.00000000
Si      -2.42587422      -0.80095065      -1.43225905       0.00000000
Si       1.76235224       0.67829931      -2.80934935       0.00000000
Si      -0.95583204      -2.06329533      -2.80722087       0.00000000
Si       3.28990301      -0.54281212      -1.45656488       0.00000000
Si       0.49149962      -3.38773749      -1.36926300       0.00000000
Si       0.84596318       0.97530185       3.60007856       0.00000000
