10
Lattice="16.28999089631971 0.0 0.0 0.0 16.28999089631971 0.0 0.0 0.0 34.33025523377368" Properties=species:S:1:pos:R:3:initial_magmoms:R:1 pbc="T T T"
Si       1.16807445       1.42527726      -1.58265998       0.00000000
Si      -0.08078211       1.88472042       1.56367534       0.00000000
Si      -1.61448561      -1.22580621      -1.43184709       0.00000000
Si       0.10472841      -2.29421844       1.45718283       0.00000000
Si      -0.53765145       0.77994891       3.55181019       0.00000000
Si       0.59971635      -1.26785070       3.46323808       0.00000000
Si      -3.14468676      -2.20784886       0.11177937       0.00000000
Si       2.52091008       0.06051735      -2.92418411       0.00000000
Si       2.25724014       2.64710871       1.76368352       0.00000000
Si      -0.21605427      -2.63000584      -2.91234017       0.00000000
