10
Lattice="16.28999089631971 0.0 0.0 0.0 16.28999089631971 0.0 0.0 0.0 34.33025523377368" Properties=species:S:1:pos:R:3:initial_magmoms:R:1 pbc="T T T"
Si       1.04993937      -2.11809815      -0.30166012       0.00000000
Si       0.50570676       1.19638647      -2.01343626       0.00000000
Si      -2.37343671       0.13642875      -0.37176254       0.00000000
Si       0.91150695       0.86538996       2.08470591       0.00000000
Si       1.64434518      -2.81531015       1.87985717       0.00000000
Si      -0.76343085       2.31482529       2.91529257       0.00000000
Si       2.79639027      -1.74666986      -1.89815520       0.00000000
Si      -0.63166104       3.24418608      -1.92486416       0.00000000
Si       1.42346907      -1.01443532       3.45194342       0.00000000
Si      -2.78899461       2.23658442      -1.51290086       0.00000000
