10
Lattice="16.28999089631971 0.0 0.0 0.0 16.28999089631971 0.0 0.0 0.0 34.33025523377368" Properties=species:S:1:pos:R:3:initial_magmoms:R:1 pbc="T T T"
Si      -0.49498794      -1.02636774      -2.00605526       0.00000000
Si      -1.13736780       2.04779961       0.08857211       0.00000000
Si       2.25784287       0.74451816      -0.23983130       0.00000000
Si      -0.50570676      -1.19638647       2.01343626       0.00000000
Si      -2.87914347      -1.05995772       1.64167372       0.00000000
Si      -3.29470137       1.04019795       0.50053540       0.00000000
Si       2.32782471       2.09836377       1.68269840       0.00000000
Si       1.24799319      -2.76041285      -1.97000847       0.00000000
Si       0.16667928       3.17521422       1.72894128       0.00000000
Si       2.29068351      -2.94305633       0.11528106       0.00000000
