10
Lattice="16.28999089631971 0.0 0.0 0.0 16.28999089631971 0.0 0.0 0.0 34.33025523377368" Properties=species:S:1:pos:R:3:initial_magmoms:R:1 pbc="T T T"
Si      -1.67493780       1.44943533       0.83058666       0.00000000
Si       0.51196212      -1.87982527       1.36723751       0.00000000
Si       1.99019817       1.24177041      -0.43012401       0.00000000
Si      -0.91150695      -0.86538996      -2.08470591       0.00000000
Si       0.73283823      -3.68070011      -0.20484875       0.00000000
Si      -1.35423657       3.55877856      -0.24779592       0.00000000
Si       0.13843242      -2.98348811      -2.38636604       0.00000000
Si      -3.67590366       0.21901905       1.10917684       0.00000000
Si       2.15928837       3.03938820       1.04329704       0.00000000
Si       1.92202452       2.42936028      -2.41544378       0.00000000
