10
Lattice="16.28999089631971 0.0 0.0 0.0 16.28999089631971 0.0 0.0 0.0 34.33025523377368" Properties=species:S:1:pos:R:3:initial_magmoms:R:1 pbc="T T T"
Si       0.39743228      -2.27214942      -0.14713956       0.00000000
Si       1.87786789       0.97285183      -1.02448405       0.00000000
Si      -1.94528664      -0.04424853      -1.34457953       0.00000000
Si      -0.36494487       0.72422734       2.23047226       0.00000000
Si       0.86177425       2.71349372       1.96163188       0.00000000
Si      -1.15028577      -2.99433399       1.52014455       0.00000000
Si       2.74140242       2.57670659       0.54097646       0.00000000
Si      -1.72441053      -1.84512336      -2.91666578       0.00000000
Si       0.37370889      -2.90856714      -2.52076906       0.00000000
Si       3.48999308      -0.63630762      -1.74002996       0.00000000
