10
Lattice="16.28999089631971 0.0 0.0 0.0 16.28999089631971 0.0 0.0 0.0 34.33025523377368" Properties=species:S:1:pos:R:3:initial_magmoms:R:1 pbc="T T T"
Si      -1.34532594      -1.35179307      -1.36747782       0.00000000
Si       1.36922337       1.36397799      -1.36078342       0.00000000
Si       1.38849444      -1.35796698       1.34828720       0.00000000
Si      -1.31901759       1.44430398       1.38955219       0.00000000
Si       2.23119243       0.59820138       2.50192174       0.00000000
Si       0.54881010       2.35639737       2.65716324       0.00000000
Si      -2.69534340      -2.69677692       0.00202549       0.00000000
Si      -2.70247842       0.00566892      -2.72215045       0.00000000
Si       0.01172880      -2.70563868      -2.72245942       0.00000000
Si      -2.70739800       2.73210993       0.00078960       0.00000000
