10
Lattice="16.28999089631971 0.0 0.0 0.0 16.28999089631971 0.0 0.0 0.0 34.33025523377368" Properties=species:S:1:pos:R:3:initial_magmoms:R:1 pbc="T T T"
Si      -0.13045032      -2.20177269       0.77548657       0.00000000
Si       0.20823507      -0.47402271      -2.29061890       0.00000000
Si      -1.36780614       1.51827687       1.17910761       0.00000000
Si       2.30283585      -0.39203514       0.58200114       0.00000000
Si       2.01772827      -2.67156000       0.04099035       0.00000000
Si       2.01895002      -2.04457419      -2.23143351       0.00000000
Si      -0.76409874       3.56379588       0.24580476       0.00000000
Si      -1.98979092      -3.13191540      -0.13351044       0.00000000
Si      -0.76748706       1.14411186       3.49516524       0.00000000
Si      -0.42451740      -2.36565009       3.08320195       0.00000000
