10
Lattice="16.28999089631971 0.0 0.0 0.0 16.28999089631971 0.0 0.0 0.0 34.33025523377368" Properties=species:S:1:pos:R:3:initial_magmoms:R:1 pbc="T T T"
Si      -1.35710361      -1.35597960      -1.35851762       0.00000000
Si       1.35728685      -1.35710361       1.35762503       0.00000000
Si      -1.35804843       1.35814617       1.35741905       0.00000000
Si       1.35799924       1.35933534      -1.35721307       0.00000000
Si       2.71356444      -2.71508688       0.00027464       0.00000000
Si      -0.00086337       2.71502172       2.71377386       0.00000000
Si      -0.00035838      -2.71410948       2.71473511       0.00000000
Si       2.71396843       2.71552671      -0.00027464       0.00000000
Si       2.71514294       0.00190593       2.71435748       0.00000000
Si      -2.71529865      -2.71487511      -0.00003433       0.00000000
