10
Lattice="16.28999089631971 0.0 0.0 0.0 16.28999089631971 0.0 0.0 0.0 34.33025523377368" Properties=species:S:1:pos:R:3:initial_magmoms:R:1 pbc="T T T"
Si       2.35167327       0.68888781      -0.31700575       0.00000000
Si      -0.19401390      -1.06587099      -2.24269384       0.00000000
Si      -0.29085795      -0.39035727       2.46082840       0.00000000
Si      -2.86229961      -0.14447601       1.13238410       0.00000000
Si      -2.23518348      -2.13563529      -0.24117018       0.00000000
Si      -1.43687574       3.18748059       0.52741601       0.00000000
Si       1.78737138       2.35794492      -2.08717769       0.00000000
Si       0.65953323       0.77401935      -3.48520946       0.00000000
Si       0.85051719       1.60036218       3.18921383       0.00000000
Si       2.99507940      -1.85236848       1.34681100       0.00000000
