10
Lattice="16.28999089631971 0.0 0.0 0.0 16.28999089631971 0.0 0.0 0.0 34.33025523377368" Properties=species:S:1:pos:R:3:initial_magmoms:R:1 pbc="T T T"
Si      -1.98290025      -0.59813622      -1.18016982       0.00000000
Si       1.24550082      -1.43347113       1.54252789       0.00000000
Si       0.78047019       2.05900713      -1.09218713       0.00000000
Si      -1.45802016       1.27852065       1.57386456       0.00000000
Si      -2.65948911      -2.49111567       0.12500683       0.00000000
Si       2.58809004       2.72117934       0.20422050       0.00000000
Si      -2.74813929       2.71769328       0.27487221       0.00000000
Si       2.67335190      -2.81525409       0.09908404       0.00000000
Si      -1.23010677       3.45277953      -1.35861859       0.00000000
Si       2.58872535      -0.06750576       2.93477500       0.00000000
