10
Lattice="16.28999089631971 0.0 0.0 0.0 16.28999089631971 0.0 0.0 0.0 34.33025523377368" Properties=species:S:1:pos:R:3:initial_magmoms:R:1 pbc="T T T"
Si      -1.53525105       1.00152549      -1.40939509       0.00000000
Si      -1.89320751      -0.66349170       1.28422691       0.00000000
Si       0.86897376       2.20524246       0.28113062       0.00000000
Si       1.33103961      -1.49302737      -1.33036679       0.00000000
Si       0.05953995       2.13416919      -2.75637773       0.00000000
Si       1.91166408       2.02259898       2.36642015       0.00000000
Si      -1.04616009      -0.38201679       3.51566041       0.00000000
Si       1.89534150      -3.16208448       0.43980515       0.00000000
Si      -2.83094136       2.55646693       0.19046436       0.00000000
Si       2.30156523      -1.85285718       2.45787600       0.00000000
