10
Lattice="16.28999089631971 0.0 0.0 0.0 16.28999089631971 0.0 0.0 0.0 34.33025523377368" Properties=species:S:1:pos:R:3:initial_magmoms:R:1 pbc="T T T"
Si       1.04269032      -0.18264348       2.08528953       0.00000000
Si      -0.86897376      -2.20524246      -0.28113062       0.00000000
Si       1.61644041       0.72987738      -1.60524930       0.00000000
Si      -1.74298113       1.73404511      -0.03604679       0.00000000
Si      -0.80943381      -0.07107327      -3.03750835       0.00000000
Si      -2.40422481      -1.20371697      -1.69052570       0.00000000
Si       2.46240359       1.70517923       1.99482926       0.00000000
Si      -1.24799319       2.76041285       1.97000847       0.00000000
Si      -3.69991512       0.35122447      -0.09066625       0.00000000
Si       3.54660734       1.13895837       0.06347668       0.00000000
