10
Lattice="16.28999089631971 0.0 0.0 0.0 16.28999089631971 0.0 0.0 0.0 34.33025523377368" Properties=species:S:1:pos:R:3:initial_magmoms:R:1 pbc="T T T"
Si       0.59440581      -0.69721200       2.18151729       0.00000000
Si      -1.04993937       2.11809815       0.30166012       0.00000000
Si       1.74645090       0.37142829      -1.59649508       0.00000000
Si      -1.21137327      -2.03318748      -0.44725482       0.00000000
Si      -0.54423261       3.31448462      -1.71177614       0.00000000
Si       0.70376058       0.55407177      -3.68178461       0.00000000
Si      -0.13843242       2.98348811       2.38636604       0.00000000
Si       3.29489263      -1.38609981      -1.44551053       0.00000000
Si      -1.32986673      -1.68516792       3.24870820       0.00000000
Si       0.22897224      -3.90178080      -0.01689050       0.00000000
