10
Lattice="16.28999089631971 0.0 0.0 0.0 16.28999089631971 0.0 0.0 0.0 34.33025523377368" Properties=species:S:1:pos:R:3:initial_magmoms:R:1 pbc="T T T"
Si       1.44034551      -1.86859332       0.43036432       0.00000000
Si      -2.18962035      -0.39949596       0.89866359       0.00000000
Si      -0.84704742      -0.28147491      -2.23143351       0.00000000
Si       1.21137327       2.03318748       0.44725482       0.00000000
Si       1.80577908       1.33597548       2.62877210       0.00000000
Si       1.04616009       0.38201679      -3.51566041       0.00000000
Si      -0.11849346       0.34801956       3.69596301       0.00000000
Si       3.34772532      -1.47084039      -1.05778442       0.00000000
Si       0.29897037      -3.85931277      -0.29802111       0.00000000
Si      -2.39423904       0.61227594       3.02216272       0.00000000
