10
Lattice="16.28999089631971 0.0 0.0 0.0 16.28999089631971 0.0 0.0 0.0 34.33025523377368" Properties=species:S:1:pos:R:3:initial_magmoms:R:1 pbc="T T T"
Si      -1.04269032       0.18264348      -2.08528953       0.00000000
Si       1.54844173      -1.75752810       0.15098455       0.00000000
Si       1.41971327       1.88782271      -0.09046027       0.00000000
Si      -1.74645090      -0.37142829       1.59649508       0.00000000
Si       2.50391702       1.32160185      -2.02181285       0.00000000
Si       3.09295691      -0.99549819      -1.52186107       0.00000000
Si      -1.91166408      -2.02259898      -2.36642015       0.00000000
Si      -0.03284064       3.68757449      -0.35511236       0.00000000
Si      -2.29068351       2.94305633      -0.11528106       0.00000000
Si      -2.79639027       1.74666986       1.89815520       0.00000000
