10
Lattice="16.28999089631971 0.0 0.0 0.0 16.28999089631971 0.0 0.0 0.0 34.33025523377368" Properties=species:S:1:pos:R:3:initial_magmoms:R:1 pbc="T T T"
Si      -0.14454117       1.74004893       1.59539651       0.00000000
Si      -2.27574558       0.26425638      -0.67380030       0.00000000
Si       1.92427254       0.98795592      -1.06719091       0.00000000
Si       0.24809670      -2.40920955       0.37595084       0.00000000
Si       1.70339643       2.78883075       0.50489535       0.00000000
Si      -3.04974864      -1.21357242       1.02036442       0.00000000
Si      -2.07112689      -0.74751552      -2.79729942       0.00000000
Si       0.24939990       0.60510834       3.58868091       0.00000000
Si      -1.99068687      -3.09469275       0.11239732       0.00000000
Si       0.11849346      -0.34801956      -3.69596301       0.00000000
