10
Lattice="16.28999089631971 0.0 0.0 0.0 16.28999089631971 0.0 0.0 0.0 34.33025523377368" Properties=species:S:1:pos:R:3:initial_magmoms:R:1 pbc="T T T"
Si      -0.89518437       2.26090539       0.13673748       0.00000000
Si      -2.10268062      -0.93017529       0.80329409       0.00000000
Si       1.83612735       0.15480387       1.63037906       0.00000000
Si      -0.00187335      -0.35280882      -2.50044554       0.00000000
Si      -1.77468147       1.32932916      -2.55911598       0.00000000
Si       0.85028913      -0.61111935       3.60158909       0.00000000
Si       2.59475265       2.36760489       1.69553792       0.00000000
Si       0.63917073       3.71115522       1.44976749       0.00000000
Si      -2.86621410       2.48780880       1.49958072       0.00000000
Si      -3.97346399       0.52818696       0.77782103       0.00000000
