10
Lattice="16.28999089631971 0.0 0.0 0.0 16.28999089631971 0.0 0.0 0.0 34.33025523377368" Properties=species:S:1:pos:R:3:initial_magmoms:R:1 pbc="T T T"
Si       1.23445620      -1.36435266      -1.54324883       0.00000000
Si      -0.98850978      -1.72354716       1.35343674       0.00000000
Si       1.93231980       0.94265343       1.23918559       0.00000000
Si      -1.46826657       1.33162605      -1.53233180       0.00000000
Si       2.61614142      -2.54995515       0.01743978       0.00000000
Si       0.78429834      -3.40568514       1.41210718       0.00000000
Si      -2.74202109      -2.60024238      -0.14731121       0.00000000
Si       2.67748956       2.74022235      -0.13896895       0.00000000
Si      -2.74912614       2.72603376      -0.10662983       0.00000000
Si       2.58572799      -0.01462842      -2.92298255       0.00000000
