10
Lattice="16.28999089631971 0.0 0.0 0.0 16.28999089631971 0.0 0.0 0.0 34.33025523377368" Properties=species:S:1:pos:R:3:initial_magmoms:R:1 pbc="T T T"
Si      -1.35793497      -1.35632087      -1.35745338       0.00000000
Si       1.35806146      -1.35715603       1.35789967       0.00000000
Si      -1.35710694       1.35784643       1.35841463       0.00000000
Si       1.35967417       1.35867722      -1.35961619       0.00000000
Si      -2.71358235       0.00082427       2.71456346       0.00000000
Si      -2.71408734      -2.71529606       0.00003433       0.00000000
Si       2.71584925       0.00082590       2.71401417       0.00000000
Si       0.00233762       2.71589486       2.71422016       0.00000000
Si       0.00048055      -2.71467704       2.71576502       0.00000000
Si       2.71558861       2.71504778      -0.00024031       0.00000000
