10
Lattice="16.28999089631971 0.0 0.0 0.0 16.28999089631971 0.0 0.0 0.0 34.33025523377368" Properties=species:S:1:pos:R:3:initial_magmoms:R:1 pbc="T T T"
Si       1.50337152      -1.81925091       0.26070410       0.00000000
Si       0.83162079       1.67925465       1.47664809       0.00000000
Si       0.01661580       0.74678247      -2.32639105       0.00000000
Si      -1.79696619      -0.84061287       1.62735800       0.00000000
Si      -0.82784151      -1.31101920      -3.13555561       0.00000000
Si       1.82265552       0.14638194       3.08539908       0.00000000
Si       3.28406400      -0.87151500       1.38502059       0.00000000
Si       2.77866675       2.48204214       0.11239732       0.00000000
Si      -2.89152876      -1.69771122      -1.82245695       0.00000000
Si       0.30112065      -3.54670767       1.38907156       0.00000000
