10
Lattice="16.28999089631971 0.0 0.0 0.0 16.28999089631971 0.0 0.0 0.0 34.33025523377368" Properties=species:S:1:pos:R:3:initial_magmoms:R:1 pbc="T T T"
Si      -1.75993576       1.32854724       0.80428967       0.00000000
Si      -1.53748767      -1.37670048      -1.12325225       0.00000000
Si       0.89562420      -1.64644659       1.49504912       0.00000000
Si       1.79696619       0.84061287      -1.62735800       0.00000000
Si       2.09808684      -2.70609480      -0.23828643       0.00000000
Si      -0.06644691      -3.36342888      -1.01514621       0.00000000
Si      -0.52564246       2.23995645       2.66819840       0.00000000
Si       2.62858698       2.51986752      -0.15070990       0.00000000
Si       2.19553362      -0.38331999       2.90750445       0.00000000
Si      -3.67592714       0.26466363      -0.20285759       0.00000000
