10
Lattice="16.28999089631971 0.0 0.0 0.0 16.28999089631971 0.0 0.0 0.0 34.33025523377368" Properties=species:S:1:pos:R:3:initial_magmoms:R:1 pbc="T T T"
Si      -1.01219544       1.63640122      -1.33342905       0.00000000
Si       1.34493498       1.36601654       1.37286081       0.00000000
Si      -1.38186767      -1.34381097       1.36259606       0.00000000
Si       1.51050654      -1.23171948      -1.47081195       0.00000000
Si       0.74064114       3.47914394      -1.13601968       0.00000000
Si       2.68962561      -2.68350057       0.00384499       0.00000000
Si       2.68679115       2.71444247      -0.00413337       0.00000000
Si       2.69306280       0.01652911       2.72712147       0.00000000
Si      -0.02008557      -2.69794980       2.72427206       0.00000000
Si      -2.73192551      -2.70782154      -0.02726510       0.00000000
