10
Lattice="16.28999089631971 0.0 0.0 0.0 16.28999089631971 0.0 0.0 0.0 34.33025523377368" Properties=species:S:1:pos:R:3:initial_magmoms:R:1 pbc="T T T"
Si      -1.23429330      -0.91140921      -1.86390873       0.00000000
Si       1.20584770      -1.44239805       1.58977665       0.00000000
Si      -1.49656033       1.24662483       1.57579393       0.00000000
Si       1.57563070       1.42148169      -1.38428047       0.00000000
Si       0.52564246      -2.23995645      -2.66819840       0.00000000
Si      -1.24687407       1.03483854      -3.28531942       0.00000000
Si       2.72117608      -2.62327644       0.23930604       0.00000000
Si       2.74587172       2.72272689       0.13224708       0.00000000
Si       2.56712155      -0.10153557       2.96905378       0.00000000
Si      -2.85998058       2.68592778       0.23753803       0.00000000
