10
Lattice="16.28999089631971 0.0 0.0 0.0 16.28999089631971 0.0 0.0 0.0 34.33025523377368" Properties=species:S:1:pos:R:3:initial_magmoms:R:1 pbc="T T T"
Si       1.34961510       1.33887836      -1.37451553       0.00000000
Si      -1.36658669      -1.37549895      -1.37314232       0.00000000
Si       1.52755077      -1.22111143       1.35278446       0.00000000
Si      -1.33764292       1.34114267       1.56185583       0.00000000
Si      -1.76235224      -0.67829931       2.80934935       0.00000000
Si      -0.04090419      -2.40077526       2.63234245       0.00000000
Si      -2.70559211       2.68060421      -0.00281508       0.00000000
Si       2.71154055       2.71699607       0.02059816       0.00000000
Si      -0.00330687       2.69611229      -2.73320480       0.00000000
Si       2.71020477      -0.01895667      -2.73341078       0.00000000
