10
Lattice="16.28999089631971 0.0 0.0 0.0 16.28999089631971 0.0 0.0 0.0 34.33025523377368" Properties=species:S:1:pos:R:3:initial_magmoms:R:1 pbc="T T T"
Si       2.06571861      -0.21642894      -1.05795607       0.00000000
Si      -1.38802040      -1.85738580      -0.29836441       0.00000000
Si       0.16589736       0.04948902       2.34716086       0.00000000
Si      -0.86869683       2.00603924      -0.97065418       0.00000000
Si      -1.60449007       2.92466492       1.10323770       0.00000000
Si       2.71757925       2.01333716      -1.52450450       0.00000000
Si      -1.44622783       1.65864847       3.06270677       0.00000000
Si      -0.07516206      -3.84256665      -0.37464628       0.00000000
Si      -2.34801942      -1.84821453      -2.45650279       0.00000000
Si       0.48803211      -2.16629307       3.20998365       0.00000000
