10
Lattice="16.28999089631971 0.0 0.0 0.0 16.28999089631971 0.0 0.0 0.0 34.33025523377368" Properties=species:S:1:pos:R:3:initial_magmoms:R:1 pbc="T T T"
Si       1.38802040       1.85738580       0.29836441       0.00000000
Si      -0.95999902       0.00917127      -2.15813837       0.00000000
Si       1.31285834      -1.98518085      -0.07628187       0.00000000
Si      -1.56236643      -0.36538470       1.86478618       0.00000000
Si       1.55391776       1.90687482       2.64552528       0.00000000
Si       2.39189165      -2.01033261       1.96135724       0.00000000
Si      -1.41258719      -2.73373893       2.06187628       0.00000000
Si      -2.11853961      -2.10875679      -2.21766707       0.00000000
Si      -2.50844076       1.76669937      -2.30912292       0.00000000
Si      -0.02068016      -3.84116571       0.38580362       0.00000000
