10
Lattice="16.28999089631971 0.0 0.0 0.0 16.28999089631971 0.0 0.0 0.0 34.642051614445585" Properties=species:S:1:pos:R:3:initial_magmoms:R:1 pbc="T T T"
Si       1.35674523      -1.35667378       1.35720706       0.00000000
Si       1.35604476       1.35803051      -1.35699920       0.00000000
Si      -1.35749457       1.35786761       1.35668743       0.00000000
Si      -1.35666378      -1.35810612      -1.35755348       0.00000000
Si      -0.00048870      -2.71301058      -2.71427554       0.00000000
Si      -2.71432125       0.00143189       2.71365199       0.00000000
Si       2.71376739      -2.71431378      -0.00020785       0.00000000
Si       2.71353933       0.00085034       2.71476053       0.00000000
Si       0.00014661      -2.71467216       2.71399841       0.00000000
Si       2.71134018       0.00036001      -2.71739333       0.00000000
