10
Lattice="16.28999089631971 0.0 0.0 0.0 16.28999089631971 0.0 0.0 0.0 34.642051614445585" Properties=species:S:1:pos:R:3:initial_magmoms:R:1 pbc="T T T"
Si      -1.35569031      -1.46701061       1.14235693       0.00000000
Si       1.06376632      -1.60618911      -1.34328094       0.00000000
Si      -1.63200129       1.14067467      -1.32682596       0.00000000
Si       2.02636523       0.69874326       1.13979342       0.00000000
Si       2.42986853      -0.23718240      -2.69837483       0.00000000
Si      -0.29389076       2.48277519      -2.70474898       0.00000000
Si       2.59133501       2.65178394      -0.04046194       0.00000000
Si       3.33083585      -1.38377034       0.99512813       0.00000000
Si      -1.56130269      -0.92740599       3.38186289       0.00000000
Si       2.14581980      -3.22047503       0.08359132       0.00000000
