10
Lattice="16.28999089631971 0.0 0.0 0.0 16.28999089631971 0.0 0.0 0.0 34.642051614445585" Properties=species:S:1:pos:R:3:initial_magmoms:R:1 pbc="T T T"
Si       0.56496978       1.95304068      -1.18025536       0.00000000
Si       0.47728071      -0.03310128       2.35891718       0.00000000
Si      -2.02636523      -0.69874326      -1.13979342       0.00000000
Si       1.30447062      -2.08251360      -0.14466529       0.00000000
Si       1.78227261       0.43559460      -2.48608822       0.00000000
Si       3.19261194      -0.90160263      -1.10567098       0.00000000
Si      -0.96259891      -2.30493237      -2.48307436       0.00000000
Si      -1.75200742      -0.33788718       3.11931064       0.00000000
Si       1.28562309      -2.23944657       2.70339793       0.00000000
Si       1.48102164       3.49933635       0.45401898       0.00000000
