10
Lattice="16.28999089631971 0.0 0.0 0.0 16.28999089631971 0.0 0.0 0.0 34.642051614445585" Properties=species:S:1:pos:R:3:initial_magmoms:R:1 pbc="T T T"
Si      -2.18202921       0.09484038       0.88579775       0.00000000
Si       1.19861820       1.59816303       1.28570582       0.00000000
Si       0.70993449      -1.77629141       1.43380068       0.00000000
Si       0.17588313       0.79573392      -2.31654993       0.00000000
Si      -1.15256637      -2.81286665      -1.10154857       0.00000000
Si      -1.69266132      -2.07418031       1.84888197       0.00000000
Si       2.43252054       1.41320637      -1.95370888       0.00000000
Si       3.26339199       1.50908931       0.26511577       0.00000000
Si      -3.30120108       1.06199397      -1.03254157       0.00000000
Si      -1.66737924       2.26080765      -2.29794714       0.00000000
