10
Lattice="16.28999089631971 0.0 0.0 0.0 16.28999089631971 0.0 0.0 0.0 34.642051614445585" Properties=species:S:1:pos:R:3:initial_magmoms:R:1 pbc="T T T"
Si       2.06477379      -0.08907372      -1.02059005       0.00000000
Si      -1.19861820      -1.59816303      -1.28570582       0.00000000
Si      -0.44878950       2.24018451      -0.68916936       0.00000000
Si       1.06253154      -0.62139834       2.06799307       0.00000000
Si      -0.48868371      -3.37445444       0.14809485       0.00000000
Si       1.23390234      -0.18495666      -3.23941470       0.00000000
Si      -1.42143282       3.10853925       1.25331549       0.00000000
Si       1.09227708      -2.95592638       1.87032541       0.00000000
Si       3.05494515       2.01846132      -0.65854577       0.00000000
Si      -3.38064741      -1.50332265      -0.39990807       0.00000000
