10
Lattice="16.28999089631971 0.0 0.0 0.0 16.28999089631971 0.0 0.0 0.0 34.642051614445585" Properties=species:S:1:pos:R:3:initial_magmoms:R:1 pbc="T T T"
Si       0.97264332      -0.86835474      -1.94248485       0.00000000
Si      -2.19701601      -0.93059883       0.10524261       0.00000000
Si       1.30807071      -0.73575414       1.88373189       0.00000000
Si       0.83240271       2.25935784       0.16957294       0.00000000
Si       3.07050210       1.77759738      -0.32030059       0.00000000
Si       0.36461907       2.66027103       2.43495653       0.00000000
Si       1.42143282      -3.10853925      -1.25331549       0.00000000
Si       2.84763861       0.55449531      -2.34294719       0.00000000
Si       3.51062532       0.23047092       1.40175676       0.00000000
Si      -0.49011723      -0.53950851      -3.76462314       0.00000000
