10
Lattice="16.28999089631971 0.0 0.0 0.0 16.28999089631971 0.0 0.0 0.0 34.642051614445585" Properties=species:S:1:pos:R:3:initial_magmoms:R:1 pbc="T T T"
Si      -1.91696226      -0.35429121       1.23062493       0.00000000
Si       1.03893059       1.91585061       0.87426195       0.00000000
Si      -0.87221384       0.70952724      -2.12913632       0.00000000
Si       1.75489238      -1.67710600      -0.21852218       0.00000000
Si       1.35707429       1.01431314      -2.88952978       0.00000000
Si      -0.91679143      -1.31030081       3.15599659       0.00000000
Si       2.40010670       2.37827484      -1.07646771       0.00000000
Si       2.16541667      -1.19203215      -2.54504903       0.00000000
Si      -3.13739277      -2.08592636       0.25877627       0.00000000
Si      -0.73061627       3.54105504       1.37906620       0.00000000
