10
Lattice="16.28999089631971 0.0 0.0 0.0 16.28999089631971 0.0 0.0 0.0 34.642051614445585" Properties=species:S:1:pos:R:3:initial_magmoms:R:1 pbc="T T T"
Si       0.68655834      -2.06863452       0.76292233       0.00000000
Si      -2.35212939       0.40280283      -0.55610917       0.00000000
Si      -0.07951149       1.42558677       2.00522164       0.00000000
Si       1.00071099       0.08529444      -2.31066078       0.00000000
Si      -0.70610634       1.75707198      -2.61599599       0.00000000
Si      -1.39510818      -2.86124076       1.57846596       0.00000000
Si       0.89282232      -3.22111944      -1.29065964       0.00000000
Si      -2.08873638       2.81931030      -0.97295721       0.00000000
Si      -0.80484003       3.46902066       1.06870789       0.00000000
Si      -1.76119335       0.48457863       3.38501532       0.00000000
