10
Lattice="16.28999089631971 0.0 0.0 0.0 16.28999089631971 0.0 0.0 0.0 34.642051614445585" Properties=species:S:1:pos:R:3:initial_magmoms:R:1 pbc="T T T"
Si      -0.68655834       2.06863452      -0.76292233       0.00000000
Si       0.20626398      -1.15248492      -2.05358197       0.00000000
Si      -2.08166652      -0.79260624       0.81554363       0.00000000
Si       2.03022270      -0.23133429       1.40958587       0.00000000
Si       1.16748801      -2.16885060       2.47389421       0.00000000
Si      -2.05776909       0.19288989       2.99019964       0.00000000
Si       1.45168335      -3.09899331      -1.36905464       0.00000000
Si       0.34148727      -3.61916559       0.75855743       0.00000000
Si       0.31415265       2.15392896      -3.07358311       0.00000000
Si      -0.76606983       3.49422129       1.24229931       0.00000000
