10
Lattice="16.28999089631971 0.0 0.0 0.0 16.28999089631971 0.0 0.0 0.0 34.642051614445585" Properties=species:S:1:pos:R:3:initial_magmoms:R:1 pbc="T T T"
Si       2.01249918       0.83719197       0.89106335       0.00000000
Si      -1.49641569      -0.12548187       1.87230001       0.00000000
Si      -0.72757656       1.67961303      -1.56343131       0.00000000
Si       0.63977346      -2.07697500      -1.06209125       0.00000000
Si       3.22517565       1.52702460      -1.07255316       0.00000000
Si       1.19140173      -3.49995537       0.85468918       0.00000000
Si       1.58628762       2.80627830       2.07485220       0.00000000
Si      -3.07084419       1.48843359      -1.81458632       0.00000000
Si      -0.82383417      -1.79509284       3.36720930       0.00000000
Si      -3.55278384      -1.06258041       1.28220697       0.00000000
