10
Lattice="16.28999089631971 0.0 0.0 0.0 16.28999089631971 0.0 0.0 0.0 34.642051614445585" Properties=species:S:1:pos:R:3:initial_magmoms:R:1 pbc="T T T"
Si      -1.78907924      -0.02186444       1.51621416       0.00000000
Si       1.39339121       1.56046634       1.08945849       0.00000000
Si       0.26360315      -2.32749144      -0.27782941       0.00000000
Si      -1.00017083       0.95600960      -1.92537166       0.00000000
Si       0.91679143       1.31030081      -3.15599659       0.00000000
Si      -0.22030759       3.20070644       1.67165313       0.00000000
Si      -1.25901893      -2.72938203      -2.03369742       0.00000000
Si      -3.60569117       0.81619253       0.10181305       0.00000000
Si      -2.22060134      -0.77562554      -2.89722032       0.00000000
Si      -1.43820893       1.73866265       3.03422971       0.00000000
