10
Lattice="16.28999089631971 0.0 0.0 0.0 16.28999089631971 0.0 0.0 0.0 34.642051614445585" Properties=species:S:1:pos:R:3:initial_magmoms:R:1 pbc="T T T"
Si       1.35729909      -1.35643572      -1.35717241       0.00000000
Si      -1.35707103       1.35791811      -1.35692992       0.00000000
Si      -1.35868374      -1.35754344       1.35665278       0.00000000
Si       1.35827649       1.35775521       1.35724170       0.00000000
Si      -2.71090035      -0.00013032       2.71701227       0.00000000
Si       2.71334385      -0.00239463       2.71493374       0.00000000
Si       2.71415835       0.00104256      -2.71417162       0.00000000
Si      -2.71412577       0.00105885      -2.71420626       0.00000000
Si       0.00057015      -2.71466334      -2.71382520       0.00000000
Si       0.00146610       2.71432125      -2.71431019       0.00000000
