10
Lattice="16.28999089631971 0.0 0.0 0.0 16.28999089631971 0.0 0.0 0.0 34.642051614445585" Properties=species:S:1:pos:R:3:initial_magmoms:R:1 pbc="T T T"
Si       0.72532854      -2.04343389       0.93651375       0.00000000
Si      -1.44503703       1.17429723       1.48361597       0.00000000
Si       2.12762061       0.95363289      -0.49132849       0.00000000
Si      -1.28389635      -0.64971036      -2.04166509       0.00000000
Si      -3.52751968       0.07301178       1.11197584       0.00000000
Si       0.80484003      -3.46902066      -1.06870789       0.00000000
Si       2.61410517      -1.39385385       2.29254297       0.00000000
Si       3.33858663       0.77994891       1.53776153       0.00000000
Si      -1.54728936      -3.06621783      -1.62481705       0.00000000
Si      -1.14653907       3.51465451       1.18583273       0.00000000
