10
Lattice="16.28999089631971 0.0 0.0 0.0 16.28999089631971 0.0 0.0 0.0 34.642051614445585" Properties=species:S:1:pos:R:3:initial_magmoms:R:1 pbc="T T T"
Si       1.21096602      -0.17368398       2.02909002       0.00000000
Si      -2.12762061      -0.95363289       0.49132849       0.00000000
Si       0.32487147       2.33721494      -0.52330312       0.00000000
Si       1.57253886      -0.30946113      -1.84219605       0.00000000
Si      -1.38592062       1.96894528      -2.04862815       0.00000000
Si       0.03168405       0.56351997      -3.37198990       0.00000000
Si       2.49681717       1.89225522      -1.38350039       0.00000000
Si      -1.40229207      -2.99706678       1.42784224       0.00000000
Si       0.48648456      -2.34748674       2.78387147       0.00000000
Si       0.25096374       1.23220818       3.62986548       0.00000000
