10
Lattice="16.28999089631971 0.0 0.0 0.0 16.28999089631971 0.0 0.0 0.0 34.642051614445585" Properties=species:S:1:pos:R:3:initial_magmoms:R:1 pbc="T T T"
Si       0.22880934       2.28035565       0.49652480       0.00000000
Si      -2.34326763      -0.19117944      -0.25115501       0.00000000
Si       1.03189005       0.07543899      -2.16776223       0.00000000
Si       0.72757656      -1.67961303       1.56343131       0.00000000
Si      -2.53856844      -1.51514919      -2.14399777       0.00000000
Si       3.13698159      -0.88826112      -1.65620277       0.00000000
Si      -0.85688658      -0.57414105      -3.52379146       0.00000000
Si      -1.85841207       3.03635826       1.12049779       0.00000000
Si      -3.03647229       2.07616050      -0.67056657       0.00000000
Si       2.74007574      -0.84242106       2.45449465       0.00000000
