10
Lattice="16.28999089631971 0.0 0.0 0.0 16.28999089631971 0.0 0.0 0.0 34.642051614445585" Properties=species:S:1:pos:R:3:initial_magmoms:R:1 pbc="T T T"
Si       0.98328069       2.16515277      -0.15900711       0.00000000
Si       1.81799658      -1.28611179       0.88558990       0.00000000
Si      -0.46470483      -1.04430303      -2.12241576       0.00000000
Si      -2.28486798       0.95537592       0.81381153       0.00000000
Si      -1.24317135      -0.02163312       2.71143490       0.00000000
Si       0.65420640      -1.80603972       2.87584759       0.00000000
Si      -2.52281438      -0.03855843      -2.51539542       0.00000000
Si      -0.97238268       3.34108293      -1.02803810       0.00000000
Si       1.69303599       2.37050451       2.35448300       0.00000000
Si       2.90595681       1.77285699      -1.75950543       0.00000000
