10
Lattice="16.28999089631971 0.0 0.0 0.0 16.28999089631971 0.0 0.0 0.0 34.642051614445585" Properties=species:S:1:pos:R:3:initial_magmoms:R:1 pbc="T T T"
Si       1.25957538      -1.37471473      -1.40601773       0.00000000
Si       1.36474362       1.32344847       1.36482831       0.00000000
Si      -1.35210258      -1.39086952       1.36219551       0.00000000
Si      -1.41569874       1.34956134      -1.44271408       0.00000000
Si      -0.60158970      -1.92488016      -2.94944121       0.00000000
Si       2.70122409       2.69291619      -0.01033373       0.00000000
Si       0.00863370       2.68185528       2.72161966       0.00000000
Si      -2.73186558       2.67644700      -0.00661317       0.00000000
Si      -2.70739800      -0.03319902       2.72258964       0.00000000
Si       2.72357397      -0.03394836       2.72220858       0.00000000
