10
Lattice="16.28999089631971 0.0 0.0 0.0 16.28999089631971 0.0 0.0 0.0 34.642051614445585" Properties=species:S:1:pos:R:3:initial_magmoms:R:1 pbc="T T T"
Si      -1.35674523       1.35667378      -1.35720706       0.00000000
Si      -1.35659862      -1.35799838       1.35679135       0.00000000
Si       1.35679410       1.35752412       1.35755348       0.00000000
Si       1.35702216      -1.35764000      -1.35741491       0.00000000
Si      -2.71340901      -0.00143234      -2.71476053       0.00000000
Si      -2.71423980       2.71454139      -0.00051963       0.00000000
Si      -0.00070047       2.71470429      -2.71420626       0.00000000
Si      -0.00071676      -2.71471103      -2.71462197       0.00000000
Si       2.71524978       2.71465542      -0.00020785       0.00000000
Si      -0.00130320       2.71750617       2.71271665       0.00000000
