10
Lattice="16.28999089631971 0.0 0.0 0.0 16.28999089631971 0.0 0.0 0.0 34.642051614445585" Properties=species:S:1:pos:R:3:initial_magmoms:R:1 pbc="T T T"
Si      -2.15133885      -0.46911942       0.68355734       0.00000000
Si       0.57780630       2.13161166       0.94919274       0.00000000
Si      -0.04668714       0.01298313      -2.42646922       0.00000000
Si       1.36435266      -1.94610277       0.74300314       0.00000000
Si       2.88269469       1.64286279       0.87731045       0.00000000
Si      -1.55592306      -0.96765858       3.06686254       0.00000000
Si       1.00641249      -3.20706117      -1.45662980       0.00000000
Si       2.30532822      -0.65342448      -2.77112318       0.00000000
Si       3.33795132       0.92804130      -1.33687216       0.00000000
Si      -2.39233311      -0.68163876      -2.81418328       0.00000000
