10
Lattice="16.28999089631971 0.0 0.0 0.0 16.28999089631971 0.0 0.0 0.0 34.642051614445585" Properties=species:S:1:pos:R:3:initial_magmoms:R:1 pbc="T T T"
Si       1.35715248       1.35467640      -1.35710313       0.00000000
Si      -1.35881406       1.35091341       1.35963200       0.00000000
Si      -1.35816246      -1.36013355      -1.35699920       0.00000000
Si       1.35635427      -1.36133901       1.36434332       0.00000000
Si      -2.70146844      -0.01228266       2.71545338       0.00000000
Si      -2.71396287       2.71274112       0.00096998       0.00000000
Si      -0.00109143       2.71287144      -2.71413698       0.00000000
Si       2.71492398       2.71305063      -0.00003464       0.00000000
Si       2.71494027      -0.00335574      -2.71406769       0.00000000
Si      -2.71604799      -0.00302994      -2.71434483       0.00000000
