10
Lattice="16.28999089631971 0.0 0.0 0.0 16.28999089631971 0.0 0.0 0.0 34.642051614445585" Properties=species:S:1:pos:R:3:initial_magmoms:R:1 pbc="T T T"
Si       1.72450827       0.89873559       1.40303648       0.00000000
Si      -0.89190031      -1.80386175       1.44630789       0.00000000
Si      -1.79211666       1.71506007       0.27088891       0.00000000
Si       0.48560490       0.54046962      -2.46360552       0.00000000
Si      -1.17731251      -2.82870311      -1.88820072       0.00000000
Si       0.45936171       2.14609347       2.89489726       0.00000000
Si       2.49057810       2.71265967       0.15620353       0.00000000
Si      -2.25147407      -0.56148372       2.88368709       0.00000000
Si       1.66452849       2.61964377      -2.10467902       0.00000000
Si      -2.58570260      -2.79650919       0.15249440       0.00000000
