10
Lattice="16.28999089631971 0.0 0.0 0.0 16.28999089631971 0.0 0.0 0.0 34.642051614445585" Properties=species:S:1:pos:R:3:initial_magmoms:R:1 pbc="T T T"
Si      -1.13981130      -0.79763985      -1.91736934       0.00000000
Si       1.60787187       1.76433732      -0.40344156       0.00000000
Si      -1.81503180       0.83808792       1.36995534       0.00000000
Si       0.80366715      -1.94479794       1.25892750       0.00000000
Si       0.62069787      -1.91570400      -2.97540748       0.00000000
Si       3.61799271       0.65493945      -0.92584399       0.00000000
Si      -1.20896235       0.28808865       3.62973319       0.00000000
Si       2.90750436      -1.23059547      -2.25790090       0.00000000
Si       0.63817704       3.28913019      -1.97269273       0.00000000
Si       0.45123300      -1.53604926       3.54474991       0.00000000
