10
Lattice="16.28999089631971 0.0 0.0 0.0 16.28999089631971 0.0 0.0 0.0 34.642051614445585" Properties=species:S:1:pos:R:3:initial_magmoms:R:1 pbc="T T T"
Si      -0.35243415       0.40874868       2.28582241       0.00000000
Si       2.30488839      -0.48874887      -0.07188230       0.00000000
Si      -0.57780630      -2.13161166      -0.94919274       0.00000000
Si      -0.80366715       1.94479794      -1.25892750       0.00000000
Si      -2.72914515      -2.60073108      -0.26563540       0.00000000
Si       2.76014502      -1.20357036      -2.28606491       0.00000000
Si      -2.61869895       2.78288586       0.11102784       0.00000000
Si      -2.01262950       2.23288659       2.37080569       0.00000000
Si       3.51002259       1.56867813       0.03831413       0.00000000
Si      -1.94347845       1.14715809      -3.17629685       0.00000000
