10
Lattice="16.28999089631971 0.0 0.0 0.0 16.28999089631971 0.0 0.0 0.0 34.642051614445585" Properties=species:S:1:pos:R:3:initial_magmoms:R:1 pbc="T T T"
Si       0.02057427      -0.90381807       2.24200019       0.00000000
Si       1.20744738       2.09859183      -0.02823329       0.00000000
Si      -0.27606663      -1.88429688      -1.57541746       0.00000000
Si      -1.24576146      -0.35950401      -3.14466863       0.00000000
Si      -0.80138655       3.20346108      -1.37199922       0.00000000
Si      -0.28038348       1.79069454      -3.17806359       0.00000000
Si       2.38764159       1.99764270       2.29306260       0.00000000
Si       0.72202167       0.96651828       3.71766377       0.00000000
Si       1.71405009      -2.79347436       2.27023348       0.00000000
Si       1.73405421      -2.99369475      -2.09781989       0.00000000
