10
Lattice="16.28999089631971 0.0 0.0 0.0 16.28999089631971 0.0 0.0 0.0 34.642051614445585" Properties=species:S:1:pos:R:3:initial_magmoms:R:1 pbc="T T T"
Si      -0.52100307       1.41276654       1.80606437       0.00000000
Si      -0.92784582       1.15878915      -1.82387039       0.00000000
Si      -0.96537798      -2.15019855       0.03339496       0.00000000
Si       2.32024986       0.28386954      -0.38341844       0.00000000
Si      -3.09312891      -1.37217186       0.71002389       0.00000000
Si       1.48783086       0.30789729       3.14983030       0.00000000
Si       2.12397165       2.12977089      -1.93469038       0.00000000
Si       0.28038348      -1.79069454       3.17806359       0.00000000
Si       0.74790648       0.99605205      -3.46936877       0.00000000
Si      -0.37128168       3.56719139       0.85919264       0.00000000
