10
Lattice="16.28999089631971 0.0 0.0 0.0 16.28999089631971 0.0 0.0 0.0 34.642051614445585" Properties=species:S:1:pos:R:3:initial_magmoms:R:1 pbc="T T T"
Si       1.35863487      -1.35854690      -1.36378905       0.00000000
Si      -1.35635427       1.36133901      -1.36434332       0.00000000
Si      -1.35710361      -1.36178536       1.36520938       0.00000000
Si       1.37308410       1.37331216       1.37054425       0.00000000
Si       0.08371431      -2.63507024       2.75678137       0.00000000
Si       2.71343734      -2.71110302      -0.00588915       0.00000000
Si       2.71119463       2.71541268      -0.00737876       0.00000000
Si      -2.71516833       2.71225242      -0.00471132       0.00000000
Si      -2.71505430      -2.71437731      -0.00502310       0.00000000
Si       0.00040725      -2.71373926      -2.72127324       0.00000000
