10
Lattice="16.28999089631971 0.0 0.0 0.0 16.28999089631971 0.0 0.0 0.0 34.642051614445585" Properties=species:S:1:pos:R:3:initial_magmoms:R:1 pbc="T T T"
Si      -1.82272068      -0.01537776       1.60392789       0.00000000
Si      -1.20845736       0.49497165      -2.09553352       0.00000000
Si       2.14278660       1.32846579       0.38684801       0.00000000
Si       1.75226643      -1.90967670      -0.01454967       0.00000000
Si       0.46296180       1.66803084      -3.31535012       0.00000000
Si       3.58792693      -0.62141463       0.86269149       0.00000000
Si       1.90228104       2.78847333      -1.62391636       0.00000000
Si      -0.97065594       1.01105514       3.58826035       0.00000000
Si       1.95787881      -2.44928132      -2.25405563       0.00000000
Si      -3.59502381       1.51949862       0.34676713       0.00000000
