10
Lattice="16.28999089631971 0.0 0.0 0.0 16.28999089631971 0.0 0.0 0.0 34.642051614445585" Properties=species:S:1:pos:R:3:initial_magmoms:R:1 pbc="T T T"
Si      -0.48672891      -1.58864442      -1.58432047       0.00000000
Si       0.07043796       1.82108679      -1.54025576       0.00000000
Si      -1.88154387       1.04139852       1.10764558       0.00000000
Si       2.04594811      -1.14122690       1.05814206       0.00000000
Si       0.63755802      -1.10903297       3.09883717       0.00000000
Si      -1.17121842       0.59205516       3.29828998       0.00000000
Si       1.62937045       3.22012086      -0.52694054       0.00000000
Si       1.11462649      -1.35048661      -3.33984206       0.00000000
Si       1.27002120       1.00953528      -3.42059273       0.00000000
Si      -2.11563117       2.77941120      -1.48586771       0.00000000
