10
Lattice="16.28999089631971 0.0 0.0 0.0 16.28999089631971 0.0 0.0 0.0 34.642051614445585" Properties=species:S:1:pos:R:3:initial_magmoms:R:1 pbc="T T T"
Si      -1.35695700       1.35542574       1.36254194       0.00000000
Si       1.36231516      -1.36181142       1.36261122       0.00000000
Si       1.35364060       1.36014984      -1.37313895       0.00000000
Si      -1.37761272      -1.34946360      -1.36975788       0.00000000
Si       2.71516411      -0.06486678      -2.64640480       0.00000000
Si       0.03266145      -2.71811682      -2.67745102       0.00000000
Si      -2.71125873       2.71096551       0.00765590       0.00000000
Si       2.71761413       2.71231758       0.00356813       0.00000000
Si       0.00195480       2.71192662       2.72002613       0.00000000
Si      -2.71409319      -2.71893132       0.00540416       0.00000000
