10
Lattice="16.28999089631971 0.0 0.0 0.0 16.28999089631971 0.0 0.0 0.0 34.642051614445585" Properties=species:S:1:pos:R:3:initial_magmoms:R:1 pbc="T T T"
Si       1.35640264      -1.35679410       1.35682599       0.00000000
Si      -1.35778779       1.35803214       1.35696456       0.00000000
Si      -1.35808101      -1.35747828      -1.35731098       0.00000000
Si       1.35949699       1.35703845      -1.35748419       0.00000000
Si       2.71529606      -0.00089595      -2.70942566       0.00000000
Si       2.71433821      -2.71404269       0.00000000       0.00000000
Si      -2.71494027       0.00335574       2.71406769       0.00000000
Si       2.71416717       0.00073305       2.71559194       0.00000000
Si       2.71448319       2.71551042       0.00024249       0.00000000
Si      -2.71581993      -2.71443528      -0.00065820       0.00000000
