10
Lattice="16.28999089631971 0.0 0.0 0.0 16.28999089631971 0.0 0.0 0.0 34.642051614445585" Properties=species:S:1:pos:R:3:initial_magmoms:R:1 pbc="T T T"
Si      -0.54468873      -1.48468689      -1.85892817       0.00000000
Si       1.04204916      -0.60303951       2.12511784       0.00000000
Si      -1.95664077       1.46846205      -0.10222875       0.00000000
Si       1.91490320       1.15427682      -1.02277250       0.00000000
Si      -1.99635579       1.71856242      -2.56687353       0.00000000
Si       1.24087513       3.40180812      -0.94915810       0.00000000
Si       0.90045160      -3.43456731      -1.38308468       0.00000000
Si       2.81159603      -2.22824394       1.62031359       0.00000000
Si      -0.78519429      -0.02467935      -3.86969254       0.00000000
Si      -0.57762711      -1.19926980       3.76171320       0.00000000
