10
Lattice="16.28999089631971 0.0 0.0 0.0 16.28999089631971 0.0 0.0 0.0 34.642051614445585" Properties=species:S:1:pos:R:3:initial_magmoms:R:1 pbc="T T T"
Si      -1.73991372      -0.99155601       1.18224866       0.00000000
Si       0.98960121       1.89710082       1.08127742       0.00000000
Si       1.64952540      -1.72421505      -0.23186045       0.00000000
Si      -1.12361904      -0.11456757      -2.15823917       0.00000000
Si       0.82347579      -1.81723095      -2.49274301       0.00000000
Si      -0.38169099      -2.29078125       2.50683328       0.00000000
Si       2.33781048       0.45092349       2.46608381       0.00000000
Si      -1.10203479       2.10851244      -2.90093053       0.00000000
Si       0.88345557      -3.53813913       1.01497249       0.00000000
Si      -2.63316936      -2.72181465      -0.11717507       0.00000000
