10
Lattice="16.28999089631971 0.0 0.0 0.0 16.28999089631971 0.0 0.0 0.0 34.642051614445585" Properties=species:S:1:pos:R:3:initial_magmoms:R:1 pbc="T T T"
Si      -1.37845980      -1.33830495      -1.36947035       0.00000000
Si       1.68085107      -0.84947463       1.43549814       0.00000000
Si       1.17911907       1.39867569      -1.51912410       0.00000000
Si      -0.79843806       1.63585809       1.53111025       0.00000000
Si       2.99289654       1.13590170       1.64896258       0.00000000
Si       2.59027290       2.68064982      -0.23549680       0.00000000
Si       2.89201257      -2.59271640       0.13267913       0.00000000
Si      -0.04769712      -2.51229267      -2.96979546       0.00000000
Si      -2.09551302      -3.30747273      -0.20982702       0.00000000
Si       0.49847400       3.70133235       1.21579812       0.00000000
