10
Lattice="16.28999089631971 0.0 0.0 0.0 16.28999089631971 0.0 0.0 0.0 34.642051614445585" Properties=species:S:1:pos:R:3:initial_magmoms:R:1 pbc="T T T"
Si      -0.83421090      -1.82239488       1.33111607       0.00000000
Si       1.83159288       0.84835062       1.32975464       0.00000000
Si      -1.81986993       1.82966022       0.02106238       0.00000000
Si       0.43210854      -0.47798118      -2.52512984       0.00000000
Si      -2.14501833      -0.49293540       2.83074015       0.00000000
Si       0.55294882       2.25056124       2.79493064       0.00000000
Si       0.76749425       1.80462249      -3.27447247       0.00000000
Si      -3.48548985       0.79853580       1.44566355       0.00000000
Si      -2.49346143      -2.96145684      -0.00176675       0.00000000
Si       2.55027185      -1.51153281      -2.55176959       0.00000000
