10
Lattice="16.28999089631971 0.0 0.0 0.0 16.28999089631971 0.0 0.0 0.0 34.642051614445585" Properties=species:S:1:pos:R:3:initial_magmoms:R:1 pbc="T T T"
Si      -1.32846579      -1.35133695       1.37727867       0.00000000
Si       1.28959785      -1.30953681      -1.51027998       0.00000000
Si       1.38613239       1.36458791       1.37651655       0.00000000
Si      -1.43734815       1.37937760      -1.39076137       0.00000000
Si       0.60145938       2.19086558      -2.49008973       0.00000000
Si       2.41023582       0.48977744      -2.68954253       0.00000000
Si      -2.69742852      -2.70290196      -0.01532565       0.00000000
Si      -2.68791516       0.00484728       2.73729174       0.00000000
Si       2.73763330      -2.69622306      -0.00820324       0.00000000
Si       0.02544498      -2.71018359       2.73715317       0.00000000
