10
Lattice="16.28999089631971 0.0 0.0 0.0 16.28999089631971 0.0 0.0 0.0 34.642051614445585" Properties=species:S:1:pos:R:3:initial_magmoms:R:1 pbc="T T T"
Si       0.01529631       0.58704177       2.27085704       0.00000000
Si       0.44481474       2.09423330      -0.99429672       0.00000000
Si      -2.05900713      -0.85962330      -0.77213712       0.00000000
Si       1.44770859      -1.92148695      -0.38109742       0.00000000
Si       0.97687872      -1.36671471       3.13437994       0.00000000
Si       0.65042712       1.55462868      -3.23380268       0.00000000
Si      -0.07327242      -3.79563516       0.01084297       0.00000000
Si       2.52660085      -2.44578060       1.71970169       0.00000000
Si      -3.94318998      -0.02854008       0.28035828       0.00000000
Si      -1.79870922      -3.20355882      -1.52054442       0.00000000
