10
Lattice="16.28999089631971 0.0 0.0 0.0 16.28999089631971 0.0 0.0 0.0 34.642051614445585" Properties=species:S:1:pos:R:3:initial_magmoms:R:1 pbc="T T T"
Si      -1.72543680       0.59207634      -1.53138739       0.00000000
Si       0.76898574      -1.97335431      -1.09822293       0.00000000
Si       1.52098101       1.87414821      -0.39194039       0.00000000
Si      -1.53658683      -0.40286799       1.94975968       0.00000000
Si       0.36636210      -0.42860619      -2.98268231       0.00000000
Si       2.59987327       1.34985456       1.70885872       0.00000000
Si       2.69417119      -2.27548494       0.30602805       0.00000000
Si      -3.02234886      -1.47339792      -1.21607526       0.00000000
Si      -1.98573471       2.93601186      -0.78298009       0.00000000
Si      -0.58187880      -2.40769458       2.74534948       0.00000000
