10
Lattice="16.28999089631971 0.0 0.0 0.0 16.28999089631971 0.0 0.0 0.0 34.642051614445585" Properties=species:S:1:pos:R:3:initial_magmoms:R:1 pbc="T T T"
Si       0.83738745       0.86783346       2.02850111       0.00000000
Si      -2.32024986      -0.28386954       0.38341844       0.00000000
Si       1.21468014      -1.96747362      -0.53712531       0.00000000
Si      -0.19627821       1.84590135      -1.55127194       0.00000000
Si      -1.57234338       0.71218251      -3.08595032       0.00000000
Si       1.26890955       3.05036869       1.26391596       0.00000000
Si      -0.68905071       3.55608161       0.07763288       0.00000000
Si      -0.83241900       0.02402775       3.53324874       0.00000000
Si      -3.24809568       0.87491961      -1.44045195       0.00000000
Si      -2.84125293       1.12889700       2.18948281       0.00000000
