10
Lattice="16.28999089631971 0.0 0.0 0.0 16.28999089631971 0.0 0.0 0.0 34.642051614445585" Properties=species:S:1:pos:R:3:initial_magmoms:R:1 pbc="T T T"
Si      -1.55893249      -1.39903407      -1.01331522       0.00000000
Si       1.00881852       1.68226830      -1.29298066       0.00000000
Si      -0.69652360       1.43746218       1.72895112       0.00000000
Si       2.07949506      -0.99217503       1.00967780       0.00000000
Si       1.31132382       2.78966250       1.70310814       0.00000000
Si      -1.62937045      -3.22012086       0.52694054       0.00000000
Si      -0.35934925      -2.21058558      -2.89365219       0.00000000
Si       3.25841865       1.08699912       1.36860430       0.00000000
Si      -0.19822649       0.18241542       3.74417223       0.00000000
Si       3.10200207      -2.14431786      -0.83002402       0.00000000
