10
Lattice="16.28999089631971 0.0 0.0 0.0 16.28999089631971 0.0 0.0 0.0 34.642051614445585" Properties=species:S:1:pos:R:3:initial_magmoms:R:1 pbc="T T T"
Si       0.67402807      -2.24753130      -0.07361440       0.00000000
Si       1.88593240       0.48610989      -1.33396223       0.00000000
Si       0.23155421       1.28884851       2.00868584       0.00000000
Si      -1.92518545       0.30213063      -1.40425099       0.00000000
Si       1.27429177      -1.10496699      -3.09041915       0.00000000
Si      -2.69417119       2.27548494      -0.30602805       0.00000000
Si       2.47686844       0.56788569       2.60716226       0.00000000
Si      -1.24087513      -3.40180812       0.94915810       0.00000000
Si      -3.19751590      -1.93334607       0.84692935       0.00000000
Si      -0.09429792       3.62533950       1.40283066       0.00000000
