10
Lattice="16.28999089631971 0.0 0.0 0.0 16.28999089631971 0.0 0.0 0.0 34.642051614445585" Properties=species:S:1:pos:R:3:initial_magmoms:R:1 pbc="T T T"
Si      -0.72202819       1.74123810       1.34667587       0.00000000
Si      -1.62024412      -1.38916233      -0.94818812       0.00000000
Si       0.91688265      -1.56155940       1.47876608       0.00000000
Si       1.39882230       0.98945460      -1.61802721       0.00000000
Si       1.35301482       2.85742890       1.65485173       0.00000000
Si       2.97325080      -0.62446086       2.06885912       0.00000000
Si      -0.34412625      -3.16970820      -1.84884733       0.00000000
Si      -2.75388056      -0.06398712      -2.46280875       0.00000000
Si       0.60227388      -3.64239513       0.29050841       0.00000000
Si       1.20352149      -0.33451515      -3.51086997       0.00000000
