10
Lattice="16.28999089631971 0.0 0.0 0.0 16.28999089631971 0.0 0.0 0.0 34.642051614445585" Properties=species:S:1:pos:R:3:initial_magmoms:R:1 pbc="T T T"
Si      -1.35806612      -1.35778779      -1.35692992       0.00000000
Si       1.35787901      -1.35799956       1.35741491       0.00000000
Si      -1.35822436       1.35746199       1.35765740       0.00000000
Si       1.35831884       1.35812988      -1.35696456       0.00000000
Si       2.71376087      -0.00047241       2.71389448       0.00000000
Si      -2.71475849      -0.00078192       2.71441411       0.00000000
Si      -2.71480736       2.71437012       0.00013857       0.00000000
Si       0.00051802      -2.71474479       2.71482982       0.00000000
Si       2.71485230      -2.71521720       0.00003464       0.00000000
Si      -2.71518203      -2.71495656       0.00034642       0.00000000
