10
Lattice="16.28999089631971 0.0 0.0 0.0 16.28999089631971 0.0 0.0 0.0 34.642051614445585" Properties=species:S:1:pos:R:3:initial_magmoms:R:1 pbc="T T T"
Si       1.35724859       1.35639331      -1.35845417       0.00000000
Si      -1.35977194       1.35902583       1.35658350       0.00000000
Si      -1.35852898      -1.35868374      -1.35869667       0.00000000
Si       1.36123964      -1.35920502       1.35789990       0.00000000
Si       2.68758773       0.00312768       2.71621550       0.00000000
Si      -0.00435758       2.69657722       2.71656192       0.00000000
Si      -2.71457442       2.71158194      -0.00131640       0.00000000
Si      -0.00028508       2.71406943      -2.71593836       0.00000000
Si       2.71345625      -2.71661814      -0.00245959       0.00000000
Si       2.71594862       2.71478456      -0.00221709       0.00000000
