10
Lattice="16.28999089631971 0.0 0.0 0.0 16.28999089631971 0.0 0.0 0.0 34.642051614445585" Properties=species:S:1:pos:R:3:initial_magmoms:R:1 pbc="T T T"
Si       1.32634809       1.36233270       1.35831560       0.00000000
Si       1.35221661      -1.35741312      -1.36035949       0.00000000
Si      -1.36123964       1.35920502      -1.35789990       0.00000000
Si      -1.36926247      -1.36296801       1.37147959       0.00000000
Si      -0.28354374       2.44149633       2.78553428       0.00000000
Si       2.69145009      -0.00705357       2.61873271       0.00000000
Si       2.71090035       0.00013032      -2.71701227       0.00000000
Si       2.71153566      -2.71650411       0.00214781       0.00000000
Si       2.70923877       2.72148885      -0.00069284       0.00000000
Si      -0.00366525      -2.71494027      -2.71683906       0.00000000
