10
Lattice="16.28999089631971 0.0 0.0 0.0 16.28999089631971 0.0 0.0 0.0 34.642051614445585" Properties=species:S:1:pos:R:3:initial_magmoms:R:1 pbc="T T T"
Si       1.18501605       1.83670469       0.91153681       0.00000000
Si       1.60989183      -1.07916363      -1.42721868       0.00000000
Si      -1.08205348       1.61428591      -1.42687226       0.00000000
Si      -1.21541319      -1.69207488       1.89654946       0.00000000
Si      -2.49967511      -2.53460997       0.04021944       0.00000000
Si       2.64388329       0.60262153       2.36033751       0.00000000
Si      -2.43746785       0.27673452      -2.78685068       0.00000000
Si       0.28354374      -2.44149633      -2.78553428       0.00000000
Si       2.97499383      -2.44854990      -0.16680157       0.00000000
Si      -2.14581980       3.22047503      -0.08359132       0.00000000
