10
Lattice="16.28999089631971 0.0 0.0 0.0 16.28999089631971 0.0 0.0 0.0 34.51530692428229" Properties=species:S:1:pos:R:3:initial_magmoms:R:1 pbc="T T T"
Si      -1.80271886      -0.92216061       1.19587809       0.00000000
Si       0.02531629       1.88653743      -1.41754445       0.00000000
Si       0.84868294       1.82519254       1.34267177       0.00000000
Si      -0.19217150      -1.36630746      -2.33075095       0.00000000
Si       1.04586361       0.51751701      -3.08556662       0.00000000
Si      -0.46565301      -2.21605902       2.69629383       0.00000000
Si       2.25514362       0.49519971       2.70066693       0.00000000
Si      -2.20154693       2.39230772      -2.07651106       0.00000000
Si       3.55500417      -1.12308147       1.14454690       0.00000000
Si       0.96589600      -3.62095749       1.15119800       0.00000000
