10
Lattice="16.28999089631971 0.0 0.0 0.0 16.28999089631971 0.0 0.0 0.0 34.51530692428229" Properties=species:S:1:pos:R:3:initial_magmoms:R:1 pbc="T T T"
Si       0.75134367       1.81188783       1.47692949       0.00000000
Si      -1.83776449      -0.68598819       1.48358059       0.00000000
Si       1.95133023      -1.71266544       0.18686598       0.00000000
Si       0.06401970      -0.67867398      -2.63949054       0.00000000
Si      -0.55087893      -1.98736371       3.03889641       0.00000000
Si      -2.83997416      -2.38751127       0.05049592       0.00000000
Si       1.31551524       1.20128976      -3.32368785       0.00000000
Si       0.85618611      -3.33130500       1.57543623       0.00000000
Si       2.17564353       0.72521451       3.03546214       0.00000000
Si      -2.99583200       1.56866184      -1.99836836       0.00000000
