10
Lattice="16.28999089631971 0.0 0.0 0.0 16.28999089631971 0.0 0.0 0.0 34.51530692428229" Properties=species:S:1:pos:R:3:initial_magmoms:R:1 pbc="T T T"
Si       1.83306483       0.85183831      -1.29933778       0.00000000
Si      -1.22142420       1.46942479       1.46039177       0.00000000
Si       1.48660911      -1.26701470       1.45759603       0.00000000
Si      -1.90716804      -1.02191731      -1.28000920       0.00000000
Si      -2.56575645       0.10932219       2.84213692       0.00000000
Si       2.79205713       2.66300938       0.08615371       0.00000000
Si       0.14631678      -2.60202355       2.84779744       0.00000000
Si      -2.71858923       2.75239261       0.03072554       0.00000000
Si       3.68026938      -0.65081645      -1.04252714       0.00000000
Si      -2.61373050      -2.88033820      -0.09563161       0.00000000
