10
Lattice="16.28999089631971 0.0 0.0 0.0 16.28999089631971 0.0 0.0 0.0 34.51530692428229" Properties=species:S:1:pos:R:3:initial_magmoms:R:1 pbc="T T T"
Si       1.35672894      -1.35477697      -1.35717714       0.00000000
Si       1.35695700       1.35767975       1.35655587       0.00000000
Si      -1.35829278      -1.35689467       1.35652135       0.00000000
Si      -1.35534429       1.35656877      -1.36283766       0.00000000
Si       2.71169856      -2.71575760      -0.00020709       0.00000000
Si       2.71415835       0.00074161       2.71394010       0.00000000
Si      -0.00024435       2.71515640       2.71331882       0.00000000
Si      -0.00047241      -2.71489423       2.71373301       0.00000000
Si       2.71358820       2.71528672      -0.00148416       0.00000000
Si      -2.71583622       0.00106913       2.71376752       0.00000000
