10
Lattice="16.28999089631971 0.0 0.0 0.0 16.28999089631971 0.0 0.0 0.0 34.51530692428229" Properties=species:S:1:pos:R:3:initial_magmoms:R:1 pbc="T T T"
Si       0.54099090       2.12408568      -0.82470920       0.00000000
Si      -1.67217176       0.10477728       1.73398096       0.00000000
Si      -2.12072017      -0.64809765      -1.03787586       0.00000000
Si       1.44925614      -2.06339240       0.42229502       0.00000000
Si       1.76210559       0.61545249      -2.42052531       0.00000000
Si       2.98107000      -0.89412552      -1.07132121       0.00000000
Si      -0.94158806      -2.13419037      -2.42473618       0.00000000
Si       0.23886027      -3.60952910      -0.93671144       0.00000000
Si       0.40806450      -0.76654224      -3.79140504       0.00000000
Si       1.73014461       3.54025683       0.97019130       0.00000000
