10
Lattice="16.28999089631971 0.0 0.0 0.0 16.28999089631971 0.0 0.0 0.0 34.51530692428229" Properties=species:S:1:pos:R:3:initial_magmoms:R:1 pbc="T T T"
Si      -1.73029122      -0.82619622      -1.43918556       0.00000000
Si       1.90545759      -1.62158805      -0.07814270       0.00000000
Si       1.02035673       1.91798460      -1.29898430       0.00000000
Si      -0.88265736      -1.15277814       2.32467625       0.00000000
Si       1.42138395      -1.92709560       2.28242949       0.00000000
Si      -0.23270265      -2.07988439      -2.77972631       0.00000000
Si       2.47969638       0.66083643      -2.78152111       0.00000000
Si       1.05397929       1.28557422       3.42464518       0.00000000
Si      -3.26210508      -1.99546310       0.05443067       0.00000000
Si       1.10938158      -3.52983842      -1.21946099       0.00000000
