10
Lattice="16.28999089631971 0.0 0.0 0.0 16.28999089631971 0.0 0.0 0.0 34.51530692428229" Properties=species:S:1:pos:R:3:initial_magmoms:R:1 pbc="T T T"
Si       1.28109447       1.03491999       1.62812245       0.00000000
Si      -2.28794679       0.07296291       0.60660686       0.00000000
Si       0.82085310      -2.18301475       0.56449816       0.00000000
Si       0.42143859       1.02576501      -2.14785423       0.00000000
Si       0.62586180      -0.01536147       3.62414377       0.00000000
Si      -2.69985573      -2.21689307       1.22084160       0.00000000
Si      -1.07499339      -3.57230645       0.13968353       0.00000000
Si       0.79127046       3.31350003       1.59702414       0.00000000
Si       3.54305871       0.97845885       0.97191707       0.00000000
Si      -2.45889405       1.85315040       2.23873309       0.00000000
