10
Lattice="16.28999089631971 0.0 0.0 0.0 16.28999089631971 0.0 0.0 0.0 34.51530692428229" Properties=species:S:1:pos:R:3:initial_magmoms:R:1 pbc="T T T"
Si       1.57947840      -0.61757019      -1.58663503       0.00000000
Si       1.62383607       0.76194846       1.49437556       0.00000000
Si      -1.47598803       1.62294012      -0.83865340       0.00000000
Si      -1.19604438      -1.97182305       0.52470199       0.00000000
Si       0.06768495      -0.70884306      -3.38067266       0.00000000
Si      -2.06319366       0.31817628      -2.76923365       0.00000000
Si       2.68983738      -1.21311630       2.04775979       0.00000000
Si       2.97887085      -2.02561263      -0.16660548       0.00000000
Si       2.44623672       1.41747435      -2.25933874       0.00000000
Si      -2.79285534       2.12778351       1.06096661       0.00000000
