10
Lattice="16.28999089631971 0.0 0.0 0.0 16.28999089631971 0.0 0.0 0.0 34.51530692428229" Properties=species:S:1:pos:R:3:initial_magmoms:R:1 pbc="T T T"
Si       1.67217176      -0.10477728      -1.73398096       0.00000000
Si      -0.44854841      -0.75287493      -2.77185682       0.00000000
Si       1.15094063      -1.95084153       1.89188858       0.00000000
Si      -1.66406001      -2.54200074      -1.43525081       0.00000000
Si      -1.96591371       2.61930168       1.25770397       0.00000000
Si       0.82990219      -0.33640479       3.64392105       0.00000000
Si       2.21316266       2.01930840      -2.55869016       0.00000000
Si       0.43233497       2.01640878       3.41736245       0.00000000
Si       3.12142790      -2.16816968      -1.31168594       0.00000000
Si      -3.46050492      -2.12652266       0.29631408       0.00000000
