10
Lattice="16.28999089631971 0.0 0.0 0.0 16.28999089631971 0.0 0.0 0.0 34.51530692428229" Properties=species:S:1:pos:R:3:initial_magmoms:R:1 pbc="T T T"
Si      -1.36441782      -1.33317360       1.36998233       0.00000000
Si       1.35506736      -1.35723393      -1.35917903       0.00000000
Si      -1.35990549       1.35658233      -1.35728069       0.00000000
Si       1.34198649       1.36366848       1.39562722       0.00000000
Si       2.71349046       0.00053757      -2.71628714       0.00000000
Si      -2.71622718       2.71389771       0.00213995       0.00000000
Si       2.71673217      -2.71472850       0.00231253       0.00000000
Si      -0.00177561       2.71552671      -2.71601102       0.00000000
Si      -0.00140094      -2.71480995      -2.71677036       0.00000000
Si       2.71656927       2.71583622       0.00196737       0.00000000
