10
Lattice="16.28999089631971 0.0 0.0 0.0 16.28999089631971 0.0 0.0 0.0 34.51530692428229" Properties=species:S:1:pos:R:3:initial_magmoms:R:1 pbc="T T T"
Si      -1.34198649      -1.36366848      -1.39562722       0.00000000
Si       1.37458278       1.35216774      -1.39365984       0.00000000
Si       1.26320805      -1.46223927       1.46376047       0.00000000
Si      -1.39745394       1.38346083       1.61821655       0.00000000
Si      -2.68688889       2.69268813      -0.02240045       0.00000000
Si      -2.70640431      -2.69684208      -0.02564489       0.00000000
Si       2.72043000       2.70464499      -0.01263261       0.00000000
Si       2.72254770      -2.71938744      -0.01877634       0.00000000
Si      -2.70189198      -0.00708615      -2.75290790       0.00000000
Si       0.01252701       2.70769122      -2.75446109       0.00000000
