10
Lattice="16.28999089631971 0.0 0.0 0.0 16.28999089631971 0.0 0.0 0.0 34.51530692428229" Properties=species:S:1:pos:R:3:initial_magmoms:R:1 pbc="T T T"
Si       1.24282926      -1.32616890       1.48816626       0.00000000
Si      -1.67252688      -1.04299983      -1.38572619       0.00000000
Si      -1.44821358       1.39488012       1.46286997       0.00000000
Si       1.92555945       0.75326589      -1.50473503       0.00000000
Si       2.57958666       2.66110182      -0.03494332       0.00000000
Si       2.49131115      -2.76270255       0.10346659       0.00000000
Si      -2.87251344       2.48155344      -0.09566268       0.00000000
Si      -2.76767100      -2.66163939       0.00284406       0.00000000
Si       2.60133381       0.04632876       2.84559191       0.00000000
Si      -0.38476980      -2.27164050      -3.11159605       0.00000000
