10
Lattice="16.28999089631971 0.0 0.0 0.0 16.28999089631971 0.0 0.0 0.0 34.51530692428229" Properties=species:S:1:pos:R:3:initial_magmoms:R:1 pbc="T T T"
Si       1.22831487       1.39401675      -1.44940209       0.00000000
Si      -1.55953944      -1.28519955      -1.30343678       0.00000000
Si      -0.77986746       1.56155940       1.72486891       0.00000000
Si       1.38789171      -1.43358516       1.52626773       0.00000000
Si      -2.90045079      -2.44069812       0.44341840       0.00000000
Si       2.55834450       0.03598461      -2.93428594       0.00000000
Si       3.19650525       2.22211890      -0.34325492       0.00000000
Si      -0.16208550      -2.66866038      -2.92165333       0.00000000
Si      -0.53318799      -1.71084096       3.57685777       0.00000000
Si      -0.14859738       2.75325435      -2.93073086       0.00000000
