10
Lattice="16.28999089631971 0.0 0.0 0.0 16.28999089631971 0.0 0.0 0.0 34.51530692428229" Properties=species:S:1:pos:R:3:initial_magmoms:R:1 pbc="T T T"
Si       2.27232468      -0.50155281      -0.10402919       0.00000000
Si      -1.54233720      -1.38434049      -1.11453440       0.00000000
Si      -0.06680529       2.11923126      -1.12771925       0.00000000
Si      -1.04997195       1.24524018       1.77408777       0.00000000
Si       0.01084914       3.15161001       0.97982108       0.00000000
Si      -3.18704076      -1.01431314       0.42443497       0.00000000
Si       2.00345823       2.37268737       1.99118917       0.00000000
Si       3.36839733       1.50526116       0.35001992       0.00000000
Si      -1.94307120      -0.25855488      -3.15863556       0.00000000
Si      -3.35357343       1.12220181       1.32897812       0.00000000
