10
Lattice="16.28999089631971 0.0 0.0 0.0 16.28999089631971 0.0 0.0 0.0 34.51530692428229" Properties=species:S:1:pos:R:3:initial_magmoms:R:1 pbc="T T T"
Si      -0.71071641       2.17357470       0.59373264       0.00000000
Si      -0.81878427      -0.53442603      -2.16431805       0.00000000
Si       2.36568267       0.13721067      -0.16215300       0.00000000
Si      -1.07825139      -1.45042902       1.88505454       0.00000000
Si      -2.27615283      -2.77332363      -0.02647326       0.00000000
Si       3.12603471      -1.57320675       1.18387569       0.00000000
Si       0.97568955      -0.13722696      -3.56536417       0.00000000
Si      -1.19790144      -2.88114714      -2.12517767       0.00000000
Si       2.90212866       0.60536898      -2.42722129       0.00000000
Si       3.09840687       1.81734498       1.37943953       0.00000000
