10
Lattice="16.28999089631971 0.0 0.0 0.0 16.28999089631971 0.0 0.0 0.0 34.51530692428229" Properties=species:S:1:pos:R:3:initial_magmoms:R:1 pbc="T T T"
Si       1.35829278       1.35689467      -1.35652135       0.00000000
Si      -1.35702216      -1.35762489      -1.35755681       0.00000000
Si      -1.35754344       1.35796379       1.35724617       0.00000000
Si       1.35782037      -1.35799956       1.35721166       0.00000000
Si       2.71226871      -0.00068418       2.71514814       0.00000000
Si       2.71502172       0.00211770      -2.71369849       0.00000000
Si       0.00144981       2.71541009       2.71352592       0.00000000
Si      -2.71464053      -2.71482624      -0.00037967       0.00000000
Si      -2.71478226       2.71468682       0.00020709       0.00000000
Si       2.71524978       2.71457442       0.00003452       0.00000000
