10
Lattice="16.28999089631971 0.0 0.0 0.0 16.28999089631971 0.0 0.0 0.0 34.51530692428229" Properties=species:S:1:pos:R:3:initial_magmoms:R:1 pbc="T T T"
Si      -1.82524563      -1.04065407       1.09192686       0.00000000
Si      -1.28112705       1.39276242      -1.43048769       0.00000000
Si       1.44291933      -1.32377427      -1.41930473       0.00000000
Si       1.45518570       1.24385553       1.51101195       0.00000000
Si       2.78166411       2.63423961       0.13305658       0.00000000
Si      -2.80021842       2.62247823       0.04794179       0.00000000
Si       2.03172138      -0.30419946       3.24240426       0.00000000
Si      -2.62974357       0.03653847      -2.80309319       0.00000000
Si       0.08794971      -2.67889050      -2.80340383       0.00000000
Si      -2.71280628      -2.77449651      -0.10989680       0.00000000
