10
Lattice="16.28999089631971 0.0 0.0 0.0 16.28999089631971 0.0 0.0 0.0 34.51530692428229" Properties=species:S:1:pos:R:3:initial_magmoms:R:1 pbc="T T T"
Si       1.32647841       1.39038408      -1.37795537       0.00000000
Si       0.57653568      -1.54805499       1.73139231       0.00000000
Si      -1.45518570      -1.24385553      -1.51101195       0.00000000
Si      -0.04300560      -0.51797313       3.74246231       0.00000000
Si      -0.01226637      -2.56762980      -2.93031668       0.00000000
Si       2.12255442       3.29863445      -0.23663708       0.00000000
Si       3.00141621      -1.94517261       1.73304904       0.00000000
Si       2.69765658       0.15811074      -2.94042967       0.00000000
Si       1.63848078       2.99312690       2.12393511       0.00000000
Si      -3.28043133      -2.28450960      -0.41908509       0.00000000
