10
Lattice="16.28999089631971 0.0 0.0 0.0 16.28999089631971 0.0 0.0 0.0 34.51530692428229" Properties=species:S:1:pos:R:3:initial_magmoms:R:1 pbc="T T T"
Si       1.68018318       1.61834634      -0.18482957       0.00000000
Si       0.61954128      -1.03008186      -2.01107000       0.00000000
Si      -2.26043298       0.81287100       0.00407281       0.00000000
Si       0.71527761      -1.37810142       1.86330989       0.00000000
Si       1.68047640       2.57569891       1.91539351       0.00000000
Si      -2.40901407       1.46065914       2.31349329       0.00000000
Si       0.04300560       0.51797313      -3.74246231       0.00000000
Si       1.25431371      -3.47350041       0.96673977       0.00000000
Si      -0.60053085      -3.24135162      -2.01717921       0.00000000
Si       3.04442181      -1.42719948      -2.00941326       0.00000000
