10
Lattice="16.28999089631971 0.0 0.0 0.0 16.28999089631971 0.0 0.0 0.0 34.51530692428229" Properties=species:S:1:pos:R:3:initial_magmoms:R:1 pbc="T T T"
Si       1.35452979       1.73863170      -0.85007797       0.00000000
Si       0.71071641      -2.17357470      -0.59373264       0.00000000
Si      -2.29110705       0.51859215      -0.49336207       0.00000000
Si       1.94279427      -0.59909733       2.89818291       0.00000000
Si       3.07639908      -2.03636403      -0.75588564       0.00000000
Si      -3.54260259      -1.36137159       0.19083524       0.00000000
Si       0.60448932       3.79578081       0.21741204       0.00000000
Si      -0.36753498      -3.62400372       1.29132190       0.00000000
Si      -0.10806786      -2.70800073      -2.75805069       0.00000000
Si       3.80912328      -0.35622972       0.78570689       0.00000000
