10
Lattice="16.28999089631971 0.0 0.0 0.0 16.28999089631971 0.0 0.0 0.0 34.51530692428229" Properties=species:S:1:pos:R:3:initial_magmoms:R:1 pbc="T T T"
Si       0.69783102       0.18149829      -2.19608875       0.00000000
Si      -1.84720455       1.50265476      -0.25681063       0.00000000
Si       1.94206122       0.85843739       1.16174998       0.00000000
Si      -0.84189978      -2.04997337       1.00761489       0.00000000
Si       0.54968976       2.12292909       2.54189017       0.00000000
Si      -2.19366027      -0.61619825       2.50012318       0.00000000
Si       2.86761015      -0.64688309      -1.75277390       0.00000000
Si      -0.88821225       3.31382583       1.12868085       0.00000000
Si      -3.68026938       0.65081645       1.04252714       0.00000000
Si       0.21401802      -1.55671217      -3.65915892       0.00000000
