10
Lattice="16.28999089631971 0.0 0.0 0.0 16.28999089631971 0.0 0.0 0.0 34.51530692428229" Properties=species:S:1:pos:R:3:initial_magmoms:R:1 pbc="T T T"
Si       1.35216774      -1.35750434      -1.36131898       0.00000000
Si      -1.36166481       1.35749457      -1.36149156       0.00000000
Si       1.34780202       1.35900954       1.37453835       0.00000000
Si      -1.36459701      -1.38171128       1.37633315       0.00000000
Si       2.70949941      -2.71200827       0.00006903       0.00000000
Si       2.70923877       2.71555929      -0.00293380       0.00000000
Si       2.71106325       0.00055386      -2.71818549       0.00000000
Si      -2.71823085      -2.71164059      -0.00445248       0.00000000
Si      -2.71673217       2.71472850      -0.00231253       0.00000000
Si      -0.00373041      -2.71449624      -2.71846161       0.00000000
