10
Lattice="16.28999089631971 0.0 0.0 0.0 16.28999089631971 0.0 0.0 0.0 34.51530692428229" Properties=species:S:1:pos:R:3:initial_magmoms:R:1 pbc="T T T"
Si       1.35856971       1.35632169      -1.35769487       0.00000000
Si      -1.35698958      -1.35847197      -1.35755681       0.00000000
Si      -1.35881406       1.35653346       1.35769487       0.00000000
Si       1.36011726      -1.36166481       1.36363151       0.00000000
Si      -2.71393029       2.71309950      -0.00158771       0.00000000
Si      -2.71386513      -0.00120546      -2.71535523       0.00000000
Si       0.00089595       2.71376739      -2.71559684       0.00000000
Si       2.71568961      -0.00089595      -2.71535523       0.00000000
Si       2.71645524       2.71533123      -0.00075934       0.00000000
Si       0.00066789      -2.71627605      -2.71580393       0.00000000
