10
Lattice="16.28999089631971 0.0 0.0 0.0 16.28999089631971 0.0 0.0 0.0 34.51530692428229" Properties=species:S:1:pos:R:3:initial_magmoms:R:1 pbc="T T T"
Si      -0.79607601      -1.90825037      -1.14131829       0.00000000
Si      -0.48407364      -0.30550755       2.36057219       0.00000000
Si       1.91182698       0.99937521      -1.17711069       0.00000000
Si      -1.90545759       1.62158805       0.07814270       0.00000000
Si      -2.13816024      -0.45829634      -2.70158361       0.00000000
Si       0.57423879       2.28242448      -2.70337841       0.00000000
Si      -2.78811495       0.46880991       2.40281895       0.00000000
Si       0.92001033       1.32237333       3.37349347       0.00000000
Si      -0.88510086       3.53957265      -1.22084160       0.00000000
Si      -2.12255442      -3.29863445       0.23663708       0.00000000
