10
Lattice="16.28999089631971 0.0 0.0 0.0 16.28999089631971 0.0 0.0 0.0 34.51530692428229" Properties=species:S:1:pos:R:3:initial_magmoms:R:1 pbc="T T T"
Si       0.83069226       1.53371979       1.51322093       0.00000000
Si       1.16545176       0.00664632      -2.01231255       0.00000000
Si      -1.97113887       1.11956283      -0.72112871       0.00000000
Si       0.46861443      -2.02815387       1.19712957       0.00000000
Si       0.36963639       3.60753453       0.51890341       0.00000000
Si      -0.57155094      -3.69565433      -0.02999382       0.00000000
Si       3.50233371      -0.36639468      -1.42641489       0.00000000
Si       0.18057465      -1.63789434      -3.43206598       0.00000000
Si      -0.43634394       1.50498423       3.48977560       0.00000000
Si      -1.38614868       3.42894726      -1.01944468       0.00000000
