10
Lattice="16.28999089631971 0.0 0.0 0.0 16.28999089631971 0.0 0.0 0.0 34.51530692428229" Properties=species:S:1:pos:R:3:initial_magmoms:R:1 pbc="T T T"
Si       1.84720455      -1.50265476       0.25681063       0.00000000
Si      -1.83306483      -0.85183831       1.29933778       0.00000000
Si       0.95899230       1.81117107       1.38549148       0.00000000
Si      -0.98702739      -1.06558591      -2.88613706       0.00000000
Si       2.54503557      -1.32115647      -1.93927812       0.00000000
Si      -0.34645572      -2.11885301       2.75693381       0.00000000
Si      -2.90118384       1.10470635      -2.03930353       0.00000000
Si       2.39689431       0.62027433       2.79870081       0.00000000
Si       2.16774288       0.85846671      -3.08394440       0.00000000
Si       1.00530477      -3.55262813       1.26442553       0.00000000
