10
Lattice="16.28999089631971 0.0 0.0 0.0 16.28999089631971 0.0 0.0 0.0 34.51530692428229" Properties=species:S:1:pos:R:3:initial_magmoms:R:1 pbc="T T T"
Si       2.11374153       0.97466328       0.65534250       0.00000000
Si      -1.38789171       1.43358516      -1.52626773       0.00000000
Si       1.37609775      -1.63106883      -1.55425965       0.00000000
Si      -1.92107970      -0.27725580       2.05059005       0.00000000
Si      -2.16775917       2.99514456       0.19860119       0.00000000
Si      -0.25314660      -3.32972487       1.73946890       0.00000000
Si       1.61541414       3.03686325       1.80339128       0.00000000
Si       2.49528591       0.05251896      -2.98550669       0.00000000
Si      -2.40438771       1.98539262       2.39815938       0.00000000
Si      -0.28676916      -2.69731449      -2.98416059       0.00000000
