10
Lattice="16.28999089631971 0.0 0.0 0.0 16.28999089631971 0.0 0.0 0.0 34.51530692428229" Properties=species:S:1:pos:R:3:initial_magmoms:R:1 pbc="T T T"
Si       0.98357391       1.56646269       1.52568096       0.00000000
Si       1.40092371      -1.28730096      -1.48015525       0.00000000
Si      -1.32483312       1.41705081      -1.47504698       0.00000000
Si      -1.11918816      -1.68358779       1.43124703       0.00000000
Si       2.67017535      -2.65261473       0.01598060       0.00000000
Si      -0.38154438       0.92214432       3.64084919       0.00000000
Si       2.65882122       2.68074756      -0.07672757       0.00000000
Si      -0.68667237       3.60318510       1.11598404       0.00000000
Si      -2.65486275       2.77508295       0.00983687       0.00000000
Si       0.88023015      -3.50419077       1.41964988       0.00000000
