10
Lattice="16.28999089631971 0.0 0.0 0.0 16.28999089631971 0.0 0.0 0.0 34.51530692428229" Properties=species:S:1:pos:R:3:initial_magmoms:R:1 pbc="T T T"
Si      -1.26245219      -1.82268158       0.68074578       0.00000000
Si       2.29017852      -0.48244464       0.27574294       0.00000000
Si      -0.45211266       1.71810630       1.58694567       0.00000000
Si      -0.28470033       0.26591796      -2.37403317       0.00000000
Si      -0.39105774      -3.61545866      -0.62828248       0.00000000
Si       0.69336756       3.61716192       0.81200756       0.00000000
Si       1.42302924       1.80755469      -3.01819270       0.00000000
Si       3.48622290       1.48937841      -0.24895905       0.00000000
Si       2.01023487       3.11231853      -1.08761244       0.00000000
Si      -2.71727693       0.70848468      -2.66178744       0.00000000
