10
Lattice="16.28999089631971 0.0 0.0 0.0 16.28999089631971 0.0 0.0 0.0 34.51530692428229" Properties=species:S:1:pos:R:3:initial_magmoms:R:1 pbc="T T T"
Si      -2.01155436       0.64669671       1.17410785       0.00000000
Si      -0.06656094       2.04882588      -1.35904097       0.00000000
Si       2.04685479      -0.56254257       1.28327983       0.00000000
Si       0.22836951      -0.06874380       2.69955174       0.00000000
Si       0.31913739      -2.72865645      -0.49384529       0.00000000
Si       1.67585004       1.67596407      -2.88579191       0.00000000
Si      -2.71819827      -1.22259708      -2.25847586       0.00000000
Si       3.55586265       1.13915970       0.42450400       0.00000000
Si      -3.74541309      -0.42533190      -0.22597184       0.00000000
Si       1.21103118      -0.50795478      -3.58358826       0.00000000
