10
Lattice="16.28999089631971 0.0 0.0 0.0 16.28999089631971 0.0 0.0 0.0 34.51530692428229" Properties=species:S:1:pos:R:3:initial_magmoms:R:1 pbc="T T T"
Si       1.35804843       1.35536058       1.35766036       0.00000000
Si      -1.35747828       1.35698958      -1.35738423       0.00000000
Si       1.35778779      -1.35747828      -1.35741875       0.00000000
Si      -1.35878148      -1.35938421       1.35738423       0.00000000
Si      -0.00275301       2.71352304      -2.71407816       0.00000000
Si       2.71487511       2.71420722       0.00006903       0.00000000
Si      -0.00086337      -2.71445157      -2.71483750       0.00000000
Si      -2.71492398       2.71438641      -0.00013806       0.00000000
Si      -2.71612944      -0.00100998      -2.71383655       0.00000000
Si       2.71490769      -2.71533123       0.00000000       0.00000000
