10
Lattice="16.28999089631971 0.0 0.0 0.0 16.28999089631971 0.0 0.0 0.0 34.51530692428229" Properties=species:S:1:pos:R:3:initial_magmoms:R:1 pbc="T T T"
Si       1.35602847       1.35630540       1.35810906       0.00000000
Si       1.35487188      -1.35866745      -1.36028352       0.00000000
Si      -1.35832536      -1.35847197       1.35783293       0.00000000
Si      -1.36003581       1.35997065      -1.35797099       0.00000000
Si       2.71357191       2.71420722       0.00044870       0.00000000
Si      -0.00123804       2.71321353       2.71532071       0.00000000
Si       2.71357191      -0.00109143       2.71514814       0.00000000
Si       2.71334385      -2.71783989       0.00103546       0.00000000
Si      -2.71611315      -0.00099369       2.71525168       0.00000000
Si      -2.71886616       2.71252935       0.00117352       0.00000000
