10
Lattice="16.28999089631971 0.0 0.0 0.0 16.28999089631971 0.0 0.0 0.0 34.51530692428229" Properties=species:S:1:pos:R:3:initial_magmoms:R:1 pbc="T T T"
Si      -0.52834986       0.81678060       2.09390678       0.00000000
Si      -0.71513100       1.58231286      -1.56309558       0.00000000
Si      -1.31699763      -1.87496271      -0.54420315       0.00000000
Si       2.16319797      -0.95014683       0.22020778       0.00000000
Si       0.02614545      -1.02895785       3.35143818       0.00000000
Si       1.85797224      -2.10717666       2.30883372       0.00000000
Si       1.21319775       1.85618034      -2.94222447       0.00000000
Si       0.18987624      -3.56667921      -1.04647018       0.00000000
Si      -2.80660410       0.80470971      -2.34745637       0.00000000
Si      -2.80067454       1.31833341       2.19793597       0.00000000
