10
Lattice="16.28999089631971 0.0 0.0 0.0 16.28999089631971 0.0 0.0 0.0 34.51530692428229" Properties=species:S:1:pos:R:3:initial_magmoms:R:1 pbc="T T T"
Si       0.55449531      -1.84573845       1.25753140       0.00000000
Si       0.52834986      -0.81678060      -2.09390678       0.00000000
Si      -2.27232468       0.50155281       0.10402919       0.00000000
Si       1.09607265       2.00681397       0.45404912       0.00000000
Si      -0.26886645       2.87424018       2.09521836       0.00000000
Si      -2.33912997       2.62078407      -1.02369006       0.00000000
Si       1.14012081      -1.02001464       3.32831291       0.00000000
Si       2.69154783      -1.76692743      -1.87369900       0.00000000
Si      -0.18678114       0.76553226      -3.65700236       0.00000000
Si      -1.29477807      -3.24447930       1.41133169       0.00000000
