10
Lattice="16.28999089631971 0.0 0.0 0.0 16.28999089631971 0.0 0.0 0.0 34.51530692428229" Properties=species:S:1:pos:R:3:initial_magmoms:R:1 pbc="T T T"
Si       1.63937673      -1.08709686      -1.29249542       0.00000000
Si      -1.92643911      -0.74259594      -1.13814288       0.00000000
Si       0.39610764       2.19945951      -0.77276364       0.00000000
Si      -0.53644599      -0.46815831       2.26506828       0.00000000
Si      -1.15769772      -2.95334442      -1.44501865       0.00000000
Si       0.94907169      -0.10239894      -3.38609156       0.00000000
Si      -1.62064323       2.83398759      -1.80722248       0.00000000
Si       1.13091696      -3.32420256      -1.28183018       0.00000000
Si      -2.56668498       0.94091040      -2.67811319       0.00000000
Si      -2.90212866      -0.60536898       2.42722129       0.00000000
