10
Lattice="16.28999089631971 0.0 0.0 0.0 16.28999089631971 0.0 0.0 0.0 34.51530692428229" Properties=species:S:1:pos:R:3:initial_magmoms:R:1 pbc="T T T"
Si      -1.34618931      -1.35526284      -1.36411127       0.00000000
Si      -1.35668007       1.35694071       1.36073222       0.00000000
Si       1.35832536      -1.35795069       1.35948967       0.00000000
Si       1.35775521       1.34801379      -1.37525972       0.00000000
Si      -2.71233224      -2.71200807      -0.00065579       0.00000000
Si       2.71484253      -2.71112841      -0.00106998       0.00000000
Si      -2.71182725       2.71476108      -0.00110449       0.00000000
Si      -2.71336014      -0.00030951       2.71680487       0.00000000
Si       0.00099369      -2.71476108       2.71694293       0.00000000
Si       0.00153126       2.71510317       2.71673584       0.00000000
