10
Lattice="16.28999089631971 0.0 0.0 0.0 16.28999089631971 0.0 0.0 0.0 34.51530692428229" Properties=species:S:1:pos:R:3:initial_magmoms:R:1 pbc="T T T"
Si       1.35668007       1.35722560      -1.35703908       0.00000000
Si       1.35757602      -1.35786924       1.35786745       0.00000000
Si      -1.35759231       1.35794578       1.35786745       0.00000000
Si      -1.36005210      -1.35855342      -1.35627974       0.00000000
Si      -0.00122175      -2.71111212      -2.71542426       0.00000000
Si      -2.71502172       0.00242721      -2.71324979       0.00000000
Si       2.71484253      -2.71477737       0.00065579       0.00000000
Si      -2.71479366       2.71488393       0.00048321       0.00000000
Si      -2.71477737      -2.71508688       0.00041418       0.00000000
Si      -0.00169416       2.71493768       2.71501008       0.00000000
