10
Lattice="16.28999089631971 0.0 0.0 0.0 16.28999089631971 0.0 0.0 0.0 34.51530692428229" Properties=species:S:1:pos:R:3:initial_magmoms:R:1 pbc="T T T"
Si      -1.36241808       1.35894438       1.34876921       0.00000000
Si       1.38144413      -1.35127179       1.36219222       0.00000000
Si      -0.95075608      -1.73558547      -1.30383094       0.00000000
Si       0.75528911       1.87843248      -1.26974326       0.00000000
Si       0.17163307       0.66560940      -3.25024756       0.00000000
Si       1.95612275      -0.82792296      -3.06679860       0.00000000
Si      -2.61583584      -2.73219138      -0.04312345       0.00000000
Si       2.57911751      -2.78431938      -0.08759299       0.00000000
Si      -2.63671962       2.76724746      -0.27629173       0.00000000
Si      -2.70359007       0.00504990       2.72813280       0.00000000
