10
Lattice="16.28999089631971 0.0 0.0 0.0 16.28999089631971 0.0 0.0 0.0 34.51530692428229" Properties=species:S:1:pos:R:3:initial_magmoms:R:1 pbc="T T T"
Si      -0.83069226      -1.53371979      -1.51322093       0.00000000
Si      -0.46105587       2.07381474      -0.99431752       0.00000000
Si      -1.26703620      -0.02873556       1.97655467       0.00000000
Si       2.33826660      -0.24694011       0.45732807       0.00000000
Si      -0.80221734       2.15518329       2.67435102       0.00000000
Si       1.53800406       2.49911406      -2.07181697       0.00000000
Si      -0.36207783      -3.56187366      -0.31609136       0.00000000
Si      -2.80183113      -0.41415696      -2.23434964       0.00000000
Si      -1.17442755       3.42831195       0.74390883       0.00000000
Si       3.32368128       1.32400233      -0.96939745       0.00000000
