10
Lattice="16.28999089631971 0.0 0.0 0.0 16.28999089631971 0.0 0.0 0.0 34.51530692428229" Properties=species:S:1:pos:R:3:initial_magmoms:R:1 pbc="T T T"
Si      -0.44888724       1.58105853      -1.62294515       0.00000000
Si       2.25788264      -0.54602451      -0.53591947       0.00000000
Si      -1.56804282      -1.77520275      -0.39865202       0.00000000
Si      -0.06516000       1.35799956       2.00672107       0.00000000
Si       1.54380560       2.79601560      -1.58649697       0.00000000
Si      -1.51369938      -2.59411734       1.95377456       0.00000000
Si      -2.19587571       2.34895284       1.80553123       0.00000000
Si      -1.93204287       3.17627307      -0.69455191       0.00000000
Si      -0.93540438       0.48363381      -3.72178763       0.00000000
Si       3.40336286       1.35303111      -1.31085757       0.00000000
