10
Lattice="16.28999089631971 0.0 0.0 0.0 16.28999089631971 0.0 0.0 0.0 34.51530692428229" Properties=species:S:1:pos:R:3:initial_magmoms:R:1 pbc="T T T"
Si       1.35655266       1.35622395      -1.35731520       0.00000000
Si       1.35755480      -1.35723393       1.35759133       0.00000000
Si      -1.35738054       1.35764118       1.35769487       0.00000000
Si      -1.35760860      -1.35910728      -1.35641780       0.00000000
Si       0.00087966      -2.71337643       2.71494104       0.00000000
Si      -0.00084708       2.71467963       2.71380204       0.00000000
Si      -0.00241092      -2.71396287      -2.71459589       0.00000000
Si      -2.71467963      -2.71494027       0.00010355       0.00000000
Si      -2.71498914       0.00003258       2.71487201       0.00000000
Si      -2.71492398       2.71503801       0.00065579       0.00000000
