10
Lattice="16.28999089631971 0.0 0.0 0.0 16.28999089631971 0.0 0.0 0.0 34.51530692428229" Properties=species:S:1:pos:R:3:initial_magmoms:R:1 pbc="T T T"
Si       1.35770634       1.35738054       1.35745326       0.00000000
Si      -1.35855342       1.35461124      -1.35986934       0.00000000
Si      -1.35754344      -1.35790182       1.35766036       0.00000000
Si       1.36008468      -1.35879777      -1.36200929       0.00000000
Si      -2.71357191      -2.71420722      -0.00044870       0.00000000
Si       0.00061902       2.71450546       2.71466492       0.00000000
Si       2.71461772       2.71485527      -0.00003452       0.00000000
Si      -2.71480995      -0.00099369       2.71487201       0.00000000
Si      -2.71570590       2.71410115      -0.00003452       0.00000000
Si       2.71487350      -0.00016290       2.71497556       0.00000000
