10
Lattice="16.28999089631971 0.0 0.0 0.0 16.28999089631971 0.0 0.0 0.0 34.51530692428229" Properties=species:S:1:pos:R:3:initial_magmoms:R:1 pbc="T T T"
Si       0.58862286      -2.06431767      -0.87775926       0.00000000
Si       1.54880433       1.59301769      -0.69082425       0.00000000
Si       0.27678339      -0.09736533       2.34183037       0.00000000
Si      -1.01887434      -0.56514897      -2.19082582       0.00000000
Si      -1.10815983      -1.99963008       2.31987862       0.00000000
Si      -0.88189173      -3.41181018       0.45836353       0.00000000
Si      -1.14095160       1.45995331       3.22065960       0.00000000
Si       1.25167473       3.44806262       0.71971358       0.00000000
Si       0.62854965       2.86669532      -2.55040648       0.00000000
Si       2.93966082      -2.53553850      -0.83675505       0.00000000
