10
Lattice="16.28999089631971 0.0 0.0 0.0 16.28999089631971 0.0 0.0 0.0 34.51530692428229" Properties=species:S:1:pos:R:3:initial_magmoms:R:1 pbc="T T T"
Si       1.00043406      -2.09834748      -0.01649833       0.00000000
Si       1.60741479       1.21576019      -1.19146906       0.00000000
Si      -2.17109862      -0.36155655      -1.01402577       0.00000000
Si       0.24208569       0.43064244       2.37748470       0.00000000
Si      -0.49322862      -3.19881843       1.38720548       0.00000000
Si      -0.88454700      -1.48568058       3.07690327       0.00000000
Si       3.01062725      -1.65431466       1.13886770       0.00000000
Si       0.73643832       3.36415283      -1.28569590       0.00000000
Si      -3.58883361       1.19576209      -0.13519653       0.00000000
Si       2.55952294       0.00402363       2.78897642       0.00000000
