10
Lattice="16.28999089631971 0.0 0.0 0.0 16.28999089631971 0.0 0.0 0.0 34.51530692428229" Properties=species:S:1:pos:R:3:initial_magmoms:R:1 pbc="T T T"
Si      -1.12663269      -1.91632302       0.69941857       0.00000000
Si       2.31743725      -0.42661881       0.41149172       0.00000000
Si      -0.76391955       1.80591659       1.39921681       0.00000000
Si      -0.24208569      -0.43064244      -2.37748470       0.00000000
Si       0.75834837      -2.52898992      -2.39398303       0.00000000
Si       2.76854156      -2.08495710      -1.23861700       0.00000000
Si       0.54317376       3.63303557       0.72057647       0.00000000
Si      -3.45416418      -1.48985082       0.55397099       0.00000000
Si      -0.72368325      -2.24329590       3.00128019       0.00000000
Si      -0.73531431      -3.62946087      -0.99027922       0.00000000
