10
Lattice="16.28999089631971 0.0 0.0 0.0 16.28999089631971 0.0 0.0 0.0 34.51530692428229" Properties=species:S:1:pos:R:3:initial_magmoms:R:1 pbc="T T T"
Si       1.12663269       1.91632302      -0.69941857       0.00000000
Si       0.40294944      -0.32697288       2.30186162       0.00000000
Si      -2.32753149       0.42647220      -0.14544758       0.00000000
Si       0.39131838      -1.71313785      -1.68969779       0.00000000
Si      -0.11126070      -2.62389546       2.27290326       0.00000000
Si       0.88454700       1.48568058      -3.07690327       0.00000000
Si      -2.95285572      -1.80429669      -0.73365777       0.00000000
Si       1.88498106      -0.61266690      -3.09340160       0.00000000
Si       3.44406994       1.48970421      -0.28792685       0.00000000
Si       0.36271314       3.72223961       0.69979824       0.00000000
