10
Lattice="16.28999089631971 0.0 0.0 0.0 16.28999089631971 0.0 0.0 0.0 34.51530692428229" Properties=species:S:1:pos:R:3:initial_magmoms:R:1 pbc="T T T"
Si      -0.30029149       1.43402499      -1.73829537       0.00000000
Si       2.29746015      -0.27150543      -0.30504645       0.00000000
Si      -0.83167685       1.39815441       1.68434792       0.00000000
Si      -1.48371668      -1.82596239      -0.28589045       0.00000000
Si      -0.88896878      -2.21206797       2.04820849       0.00000000
Si      -2.57648246       1.84500540      -1.67889450       0.00000000
Si      -1.81709153      -0.17278803       3.11107344       0.00000000
Si       0.15349904       3.61999638      -0.64571272       0.00000000
Si      -2.61735407       2.57326614       0.58192840       0.00000000
Si       2.46840741      -2.05169292      -1.93717268       0.00000000
