10
Lattice="16.28999089631971 0.0 0.0 0.0 16.28999089631971 0.0 0.0 0.0 34.51530692428229" Properties=species:S:1:pos:R:3:initial_magmoms:R:1 pbc="T T T"
Si      -0.31938174       1.01934675      -2.07716685       0.00000000
Si       2.31751314      -0.45546840       0.06720134       0.00000000
Si      -0.82588671       1.79225838       1.46044700       0.00000000
Si      -1.08067860      -2.20491666       0.27032403       0.00000000
Si       2.08088460      -1.46522034       2.26675953       0.00000000
Si      -2.65766789      -1.78882119      -1.55174004       0.00000000
Si      -1.20694239      -0.71449569      -3.27899051       0.00000000
Si      -1.03397517       0.83707794       3.59087099       0.00000000
Si       0.14374296      -1.21015152       3.65351631       0.00000000
Si       3.53758527       1.75580136       0.07331055       0.00000000
