10
Lattice="16.28999089631971 0.0 0.0 0.0 16.28999089631971 0.0 0.0 0.0 34.51530692428229" Properties=species:S:1:pos:R:3:initial_magmoms:R:1 pbc="T T T"
Si       1.57698929      -0.41609547       1.82206407       0.00000000
Si      -1.16763514      -1.56729348      -1.53627717       0.00000000
Si      -1.84258212       1.12736574       1.23461322       0.00000000
Si       1.45072550       1.07432550      -1.72725047       0.00000000
Si       2.65766789       1.78882119       1.55174004       0.00000000
Si       2.33828615       2.80816794      -0.52542681       0.00000000
Si      -2.74916949      -2.73662226      -0.14417052       0.00000000
Si      -3.65810262      -0.73021554       1.17759390       0.00000000
Si       2.85459770      -2.66890473       0.33749086       0.00000000
Si      -2.53381569      -0.19942218      -3.04311277       0.00000000
