10
Lattice="16.28999089631971 0.0 0.0 0.0 16.28999089631971 0.0 0.0 0.0 34.51530692428229" Properties=species:S:1:pos:R:3:initial_magmoms:R:1 pbc="T T T"
Si       0.88756065       1.73384244       1.20182366       0.00000000
Si       1.45534860      -1.27850436      -1.32273085       0.00000000
Si      -1.28409509       1.46254878      -1.31986607       0.00000000
Si      -1.45072550      -1.07432550       1.72725047       0.00000000
Si       1.20694239       0.71449569       3.27899051       0.00000000
Si      -2.61836064      -2.64161898       0.19097330       0.00000000
Si       0.08402382      -2.62096326      -2.69381766       0.00000000
Si      -2.63628549       0.10233378      -2.69478409       0.00000000
Si       2.74478355      -2.58773166       0.31788615       0.00000000
Si       0.12626379      -1.49042097       3.54931454       0.00000000
