10
Lattice="16.28999089631971 0.0 0.0 0.0 16.28999089631971 0.0 0.0 0.0 34.51530692428229" Properties=species:S:1:pos:R:3:initial_magmoms:R:1 pbc="T T T"
Si      -0.64246131       0.83821824      -2.12931950       0.00000000
Si      -2.23468989      -0.70198497       0.49391432       0.00000000
Si      -0.07143165       1.66737924       1.71855261       0.00000000
Si       1.98729855      -1.25597529       0.47223869       0.00000000
Si      -0.80899398       2.97473319      -1.22477635       0.00000000
Si      -1.92852423       2.72013678       0.82929974       0.00000000
Si       1.49460750       3.09777156      -0.77966670       0.00000000
Si      -2.05244715      -1.40276448       2.68242761       0.00000000
Si       1.12397742      -3.35059236       1.05844699       0.00000000
Si       1.00224225       0.46819089      -3.66828887       0.00000000
