10
Lattice="16.28999089631971 0.0 0.0 0.0 16.28999089631971 0.0 0.0 0.0 34.51530692428229" Properties=species:S:1:pos:R:3:initial_magmoms:R:1 pbc="T T T"
Si      -1.35566683       1.35643572      -1.35710811       0.00000000
Si       1.36045935      -1.35628259      -1.35914452       0.00000000
Si      -1.34965256      -1.36764813       1.36666886       0.00000000
Si       1.35404109       1.38199473       1.37087973       0.00000000
Si      -2.52878467       0.11844459       2.75352918       0.00000000
Si       2.57300550      -0.12758328       2.72008383       0.00000000
Si      -2.71505735      -2.71299266      -0.00069031       0.00000000
Si       2.71696023      -2.71120076      -0.00124255       0.00000000
Si      -2.71331081       0.00058644      -2.71545877       0.00000000
Si       0.00146610      -2.71372889      -2.71542426       0.00000000
