10
Lattice="16.28999089631971 0.0 0.0 0.0 16.28999089631971 0.0 0.0 0.0 34.51530692428229" Properties=species:S:1:pos:R:3:initial_magmoms:R:1 pbc="T T T"
Si      -1.35777381       1.35483575       1.36111189       0.00000000
Si       1.35814780      -1.36045935       1.36104286       0.00000000
Si       1.37028385       1.33924977      -1.38240785       0.00000000
Si      -1.35051277      -1.37200896      -1.38678094       0.00000000
Si      -0.03617683       2.66924260      -2.74040300       0.00000000
Si      -2.71486438       2.71283139       0.00555697       0.00000000
Si       2.71811845       2.71062898      -0.00075934       0.00000000
Si       0.00038770       2.71185236       2.71880676       0.00000000
Si      -2.71230685      -2.71881729      -0.00086288       0.00000000
Si       2.71288936      -2.71876842       0.00158771       0.00000000
