10
Lattice="16.28999089631971 0.0 0.0 0.0 16.28999089631971 0.0 0.0 0.0 34.51530692428229" Properties=species:S:1:pos:R:3:initial_magmoms:R:1 pbc="T T T"
Si      -1.35716716       1.35754344      -1.35752230       0.00000000
Si      -1.35834004      -1.35809730       1.35583104       0.00000000
Si       1.35717757       1.35772263       1.35738423       0.00000000
Si       1.35804745      -1.35747828      -1.35790196       0.00000000
Si      -0.00439913      -2.70858717       2.71721906       0.00000000
Si      -2.71213678      -0.00288333       2.71507911       0.00000000
Si      -2.71425448       2.71466836      -0.00031064       0.00000000
Si      -2.71487350       0.00016290      -2.71497556       0.00000000
Si      -2.71487350      -2.71513575      -0.00027612       0.00000000
Si      -0.00025578       2.71501817      -2.71501008       0.00000000
