10
Lattice="16.28999089631971 0.0 0.0 0.0 16.28999089631971 0.0 0.0 0.0 34.51530692428229" Properties=species:S:1:pos:R:3:initial_magmoms:R:1 pbc="T T T"
Si      -1.35717757      -1.35772263      -1.35738423       0.00000000
Si       1.35796698       1.35758912      -1.35766036       0.00000000
Si      -1.35855647       1.35832536       1.35707360       0.00000000
Si       1.35777150      -1.35760860       1.36142253       0.00000000
Si      -2.71247138      -0.00506619       2.71259400       0.00000000
Si      -2.71320443       2.71302361      -0.00072482       0.00000000
Si       0.00684832       2.70366989       2.72443276       0.00000000
Si       0.00072816       2.71431215      -2.71469944       0.00000000
Si      -2.71434473      -0.00017919      -2.71490653       0.00000000
Si       2.71446786      -2.71547784       0.00013806       0.00000000
