10
Lattice="10.86 0.0 0.0 0.0 10.86 0.0 0.0 0.0 10.86" Properties=species:S:1:pos:R:3:initial_magmoms:R:1 pbc="T T T"
Si       1.44542256      -1.20666546       1.41069228       0.00000000
Si      -1.25810928       1.30731594       1.58886144       0.00000000
Si       1.51820628       0.31828488      -2.20617642       0.00000000
Si       0.01625742       2.49492210      -2.70340152       0.00000000
Si      -0.03517554      -2.64809154      -2.67214644       0.00000000
Si       2.67982446      -2.64809154       0.04285356       0.00000000
Si      -2.75017554      -2.64809154       0.04285356       0.00000000
Si      -0.03517554      -2.64809154       2.75785356       0.00000000
Si      -2.75017554       0.06690846      -2.67214644       0.00000000
Si       2.67982446       0.06690846       2.75785356       0.00000000
