10
Lattice="10.86 0.0 0.0 0.0 10.86 0.0 0.0 0.0 10.86" Properties=species:S:1:pos:R:3:initial_magmoms:R:1 pbc="T T T"
Si       1.26434292      -1.34920296      -1.31005266       0.00000000
Si      -1.50209004      -1.06221660       1.43620242       0.00000000
Si       1.21290996       1.65278340       1.43620242       0.00000000
Si      -1.50209004       1.65278340      -1.27879758       0.00000000
Si      -0.26348532      -2.34384864      -2.50319742       0.00000000
Si       2.55760602       0.41391804      -2.39981022       0.00000000
Si       2.34537990       0.40102722       2.82480546       0.00000000
Si      -2.85959004      -2.41971660       0.07870242       0.00000000
Si      -2.85959004       0.29528340      -2.63629758       0.00000000
Si      -0.01002378      -2.53680912       2.98221030       0.00000000
