10
Lattice="10.86 0.0 0.0 0.0 10.86 0.0 0.0 0.0 10.86" Properties=species:S:1:pos:R:3:initial_magmoms:R:1 pbc="T T T"
Si       1.16504994      -1.16329062      -1.51309122       0.00000000
Si       1.16504994       1.55170938       1.20190878       0.00000000
Si      -1.54995006       1.55170938      -1.51309122       0.00000000
Si       2.52254994      -2.52079062      -0.15559122       0.00000000
Si       2.52254994       0.19420938       2.55940878       0.00000000
Si       2.52254994       0.19420938      -2.87059122       0.00000000
Si       2.52254994       2.90920938      -0.15559122       0.00000000
Si      -0.19245006       2.90920938       2.55940878       0.00000000
Si      -2.92025400       0.31284402      -2.63410386       0.00000000
Si      -3.13248012       0.29995320       2.59051182       0.00000000
