10
Lattice="16.28999089631971 0.0 0.0 0.0 16.28999089631971 0.0 0.0 0.0 34.56954931742767" Properties=species:S:1:pos:R:3:initial_magmoms:R:1 pbc="T T T"
Si       1.50887754       1.95112402       0.44186823       0.00000000
Si      -1.82059646       1.09682199       1.39875389       0.00000000
Si       1.21974633      -1.73343519       1.59804745       0.00000000
Si      -0.57009136       0.07998390      -2.65276499       0.00000000
Si       1.92757941      -2.46567069      -1.06135490       0.00000000
Si       2.25002367       2.38392488      -1.74334335       0.00000000
Si       2.08976265      -0.13870935       3.21060863       0.00000000
Si      -3.85795160      -0.52945758      -0.84436171       0.00000000
Si       1.29036348       1.27777214      -3.55738146       0.00000000
Si      -0.64987652       2.43125059       3.17489135       0.00000000
