10
Lattice="16.28999089631971 0.0 0.0 0.0 16.28999089631971 0.0 0.0 0.0 34.56954931742767" Properties=species:S:1:pos:R:3:initial_magmoms:R:1 pbc="T T T"
Si       1.34096022       1.35264015       1.37355267       0.00000000
Si       1.35614250      -1.35704334      -1.36100392       0.00000000
Si      -1.35870003       1.35614250      -1.36034710       0.00000000
Si      -1.36334268      -1.34831353       1.37911837       0.00000000
Si       2.71308321      -2.71470609       0.00038027       0.00000000
Si       2.71142163       2.71645524       0.00141735       0.00000000
Si       2.71368594      -0.00081450      -2.71751379       0.00000000
Si      -0.00141723       2.71479366      -2.71709896       0.00000000
Si      -2.71894761      -2.71325763      -0.00058768       0.00000000
Si      -0.00102627      -2.71551769      -2.71785949       0.00000000
