10
Lattice="16.28999089631971 0.0 0.0 0.0 16.28999089631971 0.0 0.0 0.0 34.56954931742767" Properties=species:S:1:pos:R:3:initial_magmoms:R:1 pbc="T T T"
Si      -0.79521264      -1.58877999       1.56869789       0.00000000
Si      -2.09129391       1.09714779      -0.46506441       0.00000000
Si       1.50814449       1.66847067       0.89165288       0.00000000
Si       1.54727307      -1.11452922      -1.57156716       0.00000000
Si       1.21642317      -2.81069452       1.74686944       0.00000000
Si       0.63934992       3.59829810      -0.19808363       0.00000000
Si      -1.66868244       3.29877387       0.35050086       0.00000000
Si       3.60328284       0.58600017       0.68385521       0.00000000
Si       1.77808608      -3.26977132      -0.45324161       0.00000000
Si       2.94475959      -1.25591013       2.06608484       0.00000000
