10
Lattice="16.28999089631971 0.0 0.0 0.0 16.28999089631971 0.0 0.0 0.0 34.56954931742767" Properties=species:S:1:pos:R:3:initial_magmoms:R:1 pbc="T T T"
Si       1.33258716       1.35309627       1.36632763       0.00000000
Si       1.35503478      -1.35704171      -1.35889517       0.00000000
Si      -1.36114679       1.35676152      -1.35813464       0.00000000
Si      -1.35207814      -1.36520789       1.38720765       0.00000000
Si       2.70984150      -2.71275264       0.00138278       0.00000000
Si       2.71241532       0.00000000      -2.71578531       0.00000000
Si      -0.00206883      -2.71478035      -2.71568160       0.00000000
Si      -0.00241092       2.71500543      -2.71561246       0.00000000
Si       2.71189404       2.71964808       0.00179762       0.00000000
Si      -2.71734542       0.00001629      -2.71550876       0.00000000
