10
Lattice="16.28999089631971 0.0 0.0 0.0 16.28999089631971 0.0 0.0 0.0 34.56954931742767" Properties=species:S:1:pos:R:3:initial_magmoms:R:1 pbc="T T T"
Si       1.35651717      -1.35718506       1.35913716       0.00000000
Si      -1.35760860       1.35687555       1.35882603       0.00000000
Si      -1.35185823      -1.35412254      -1.36880281       0.00000000
Si       1.35234693       1.34804637      -1.38676170       0.00000000
Si       2.71432125      -2.71590138      -0.00134821       0.00000000
Si      -2.71524978      -2.71503801      -0.00162477       0.00000000
Si      -0.00078192       2.71451673       2.71595816       0.00000000
Si      -2.71629234       2.71467963      -0.00466689       0.00000000
Si       2.71438641      -0.00017919       2.71664955       0.00000000
Si       2.71508688       2.71665072       0.00155563       0.00000000
