10
Lattice="16.28999089631971 0.0 0.0 0.0 16.28999089631971 0.0 0.0 0.0 34.56954931742767" Properties=species:S:1:pos:R:3:initial_magmoms:R:1 pbc="T T T"
Si      -1.35742941       1.35746199       1.36380405       0.00000000
Si       1.35868374      -1.35780408       1.36349293       0.00000000
Si      -1.36726857      -1.34941473      -1.36676321       0.00000000
Si       1.37933946       1.35022923      -1.38852475       0.00000000
Si       2.71529865       2.71459818       0.00425206       0.00000000
Si       2.71629234      -2.71467963       0.00466689       0.00000000
Si      -2.71504453      -2.71669959       0.00314583       0.00000000
Si      -2.71728603       2.71839375       0.00248901       0.00000000
Si      -2.71464216      -0.00055386       2.72110903       0.00000000
Si       0.00053757      -2.71516833       2.72086704       0.00000000
