10
Lattice="16.28999089631971 0.0 0.0 0.0 16.28999089631971 0.0 0.0 0.0 34.56954931742767" Properties=species:S:1:pos:R:3:initial_magmoms:R:1 pbc="T T T"
Si      -1.36702514      -1.34936170      -1.38326672       0.00000000
Si       1.35207814       1.36520789      -1.38720765       0.00000000
Si      -1.27198250       1.48761095       1.44037565       0.00000000
Si       1.29240787      -1.43873184       1.48220482       0.00000000
Si       2.68466531       2.71830416      -0.02088002       0.00000000
Si       2.70310559      -2.70470919      -0.00943749       0.00000000
Si      -2.72246529      -2.70904233       0.00124450       0.00000000
Si      -0.00734679      -2.70687576      -2.74496203       0.00000000
Si       2.70711292       0.00816618      -2.74610282       0.00000000
Si      -2.72806905       2.72719850      -0.00746703       0.00000000
