10
Lattice="16.28999089631971 0.0 0.0 0.0 16.28999089631971 0.0 0.0 0.0 34.56954931742767" Properties=species:S:1:pos:R:3:initial_magmoms:R:1 pbc="T T T"
Si      -1.35682668      -1.35764118      -1.35713213       0.00000000
Si       1.35729909      -1.35718506       1.35827292       0.00000000
Si      -1.35777150       1.35728280       1.35792723       0.00000000
Si       1.35819504       1.35796698      -1.35758153       0.00000000
Si       0.00047241       2.71389771       2.71464452       0.00000000
Si       2.71440270       0.00118917       2.71443710       0.00000000
Si       2.71516833      -2.71469592       0.00069139       0.00000000
Si      -2.71497285      -2.71500543       0.00024199       0.00000000
Si       2.71586880       0.00213399      -2.71440253       0.00000000
Si       2.71547784       2.71485882       0.00024199       0.00000000
