10
Lattice="16.28999089631971 0.0 0.0 0.0 16.28999089631971 0.0 0.0 0.0 34.56954931742767" Properties=species:S:1:pos:R:3:initial_magmoms:R:1 pbc="T T T"
Si      -1.35366642      -1.34974053      -1.37742446       0.00000000
Si       1.36301688       1.36138788      -1.37853069       0.00000000
Si       1.12329324      -1.49786550       1.47166111       0.00000000
Si      -1.36189287       1.33895655       1.50087239       0.00000000
Si       2.29092786       0.12522123       2.74959435       0.00000000
Si      -0.81904491      -2.10342996       2.83698622       0.00000000
Si      -2.70850572       2.70972747      -0.00784729       0.00000000
Si       2.70418887      -2.71624347      -0.00369894       0.00000000
Si       2.71101438       2.71824714      -0.00062225       0.00000000
Si      -2.73297330      -2.71629234      -0.01289445       0.00000000
