10
Lattice="16.28999089631971 0.0 0.0 0.0 16.28999089631971 0.0 0.0 0.0 34.56954931742767" Properties=species:S:1:pos:R:3:initial_magmoms:R:1 pbc="T T T"
Si       0.13960530      -1.19775483       2.09059466       0.00000000
Si      -0.59857605      -1.91153376      -1.40629005       0.00000000
Si       1.94233815       0.60556446      -1.36532511       0.00000000
Si      -1.77103251       1.81016109       0.01362041       0.00000000
Si       2.58616782      -1.50032529       1.58508386       0.00000000
Si      -1.91392839      -0.61286238      -2.84988067       0.00000000
Si       0.81904491       2.10342996      -2.83698622       0.00000000
Si       1.75576878       0.37954071       3.19125516       0.00000000
Si      -3.33826083       0.67259781      -1.35969027       0.00000000
Si      -0.54284796       3.44238651      -1.33611383       0.00000000
