10
Lattice="16.28999089631971 0.0 0.0 0.0 16.28999089631971 0.0 0.0 0.0 34.56954931742767" Properties=species:S:1:pos:R:3:initial_magmoms:R:1 pbc="T T T"
Si       1.36189287      -1.33895655      -1.50087239       0.00000000
Si       1.27811340       1.17349902       1.70704530       0.00000000
Si      -1.34661285       1.37077092      -1.50871968       0.00000000
Si      -1.22818455      -1.63222542       1.34973424       0.00000000
Si       0.54284796      -3.44238651       1.33611383       0.00000000
Si       2.48518611      -2.83682205      -0.02921129       0.00000000
Si      -2.74742253       2.68903917      -0.19600945       0.00000000
Si      -0.90082071       3.62990070       1.07653094       0.00000000
Si      -2.79541287      -2.76978870      -0.02357645       0.00000000
Si       2.77469199       2.79542916       0.00604967       0.00000000
