10
Lattice="16.28999089631971 0.0 0.0 0.0 16.28999089631971 0.0 0.0 0.0 34.56954931742767" Properties=species:S:1:pos:R:3:initial_magmoms:R:1 pbc="T T T"
Si      -0.38579607       0.37809090      -2.31840812       0.00000000
Si       0.42261147       2.20162608       0.81556526       0.00000000
Si       2.09129391      -1.09714779       0.46506441       0.00000000
Si      -2.19745584      -0.49793643       0.95090512       0.00000000
Si       1.29608127      -2.68592778       2.03376229       0.00000000
Si       2.73064383       2.50115031       0.26698078       0.00000000
Si      -3.53541870       1.10832273      -0.27690224       0.00000000
Si      -2.74238892       0.64764153      -2.50045147       0.00000000
Si       2.02641084       0.64839087      -3.12992874       0.00000000
Si      -2.60003061      -2.81528667       0.49164841       0.00000000
