10
Lattice="16.28999089631971 0.0 0.0 0.0 16.28999089631971 0.0 0.0 0.0 34.56954931742767" Properties=species:S:1:pos:R:3:initial_magmoms:R:1 pbc="T T T"
Si      -1.58096961       1.54362411       0.77024456       0.00000000
Si      -0.55173741      -2.07963027       1.16364625       0.00000000
Si       1.77925733       1.19371491       1.19825039       0.00000000
Si      -0.31368187       0.67979799      -2.44825142       0.00000000
Si      -0.67171163       3.42528201      -0.32505765       0.00000000
Si       1.74778505       3.03060789      -0.31969937       0.00000000
Si      -1.93004802      -1.06075593       2.84759908       0.00000000
Si      -1.32691077       1.26669411       3.09992236       0.00000000
Si       1.72424600      -2.75210753       1.80885268       0.00000000
Si      -2.10997107      -3.19903509      -0.49462139       0.00000000
