10
Lattice="16.28999089631971 0.0 0.0 0.0 16.28999089631971 0.0 0.0 0.0 34.56954931742767" Properties=species:S:1:pos:R:3:initial_magmoms:R:1 pbc="T T T"
Si       0.49655178      -2.30514644       0.24457970       0.00000000
Si       0.19736964       0.48289424       2.38149758       0.00000000
Si      -2.27598341       0.67247726      -0.64520643       0.00000000
Si       1.48579461       0.56274782      -2.12118873       0.00000000
Si      -1.72323276      -2.68952528       1.34610443       0.00000000
Si      -1.75986409      -0.88570685       2.93049690       0.00000000
Si      -1.72424600       2.75210753      -1.80885268       0.00000000
Si       2.42605341      -2.48339162       1.84632609       0.00000000
Si       1.44449946      -3.24490025      -1.73321446       0.00000000
Si       0.05501133       3.94582244      -0.61060229       0.00000000
