10
Lattice="16.28999089631971 0.0 0.0 0.0 16.28999089631971 0.0 0.0 0.0 34.56954931742767" Properties=species:S:1:pos:R:3:initial_magmoms:R:1 pbc="T T T"
Si      -1.37831060       1.01887434       1.68395283       0.00000000
Si       0.55173741       2.07963027      -1.16364625       0.00000000
Si       2.27598341      -0.67247726       0.64520643       0.00000000
Si      -1.55823365      -1.11940482      -1.65826764       0.00000000
Si      -0.12000354      -2.95323758      -1.77670298       0.00000000
Si      -3.46077533       1.10754081       0.62764509       0.00000000
Si      -1.56895247      -0.51270494       3.40226781       0.00000000
Si      -1.02923219       3.62325438      -0.39340169       0.00000000
Si      -3.64669310      -0.93181895      -0.47706005       0.00000000
Si       2.47335305      -0.18958302       3.02670401       0.00000000
