10
Lattice="16.28999089631971 0.0 0.0 0.0 16.28999089631971 0.0 0.0 0.0 34.56954931742767" Properties=species:S:1:pos:R:3:initial_magmoms:R:1 pbc="T T T"
Si      -0.79340445       1.16341551      -1.83948132       0.00000000
Si      -1.14261318       1.07408115       1.72360412       0.00000000
Si       2.32632603       0.40764096      -0.02461353       0.00000000
Si      -1.10112255      -2.01069099      -0.62301277       0.00000000
Si       0.34145469      -3.54139713       0.48539131       0.00000000
Si      -3.15869616       1.32862869      -1.58356280       0.00000000
Si      -1.47054717       3.33130500       1.22960499       0.00000000
Si      -1.25118603      -1.97483670      -3.07603479       0.00000000
Si      -0.20834910       0.78700248       3.80987759       0.00000000
Si       3.61002690      -1.33227765       0.89383077       0.00000000
