10
Lattice="16.28999089631971 0.0 0.0 0.0 16.28999089631971 0.0 0.0 0.0 34.56954931742767" Properties=species:S:1:pos:R:3:initial_magmoms:R:1 pbc="T T T"
Si      -0.93426408       0.28707867      -2.08627347       0.00000000
Si       1.42550532       1.64568096       0.80426101       0.00000000
Si       1.14207561      -2.08412631       0.02402585       0.00000000
Si      -2.15932095       0.21558186       1.05952271       0.00000000
Si      -2.91309183      -0.54933138      -1.04400097       0.00000000
Si       0.98070687      -1.94059512       2.37607016       0.00000000
Si       1.97198595       0.26065629       2.65158962       0.00000000
Si       3.26037834       1.82532708      -0.65101412       0.00000000
Si      -1.26219807       2.54430252      -2.58027260       0.00000000
Si       0.20834910      -0.78700248      -3.80987759       0.00000000
