10
Lattice="16.28999089631971 0.0 0.0 0.0 16.28999089631971 0.0 0.0 0.0 34.56954931742767" Properties=species:S:1:pos:R:3:initial_magmoms:R:1 pbc="T T T"
Si      -0.16136874       0.14353119       2.35204431       0.00000000
Si      -1.14207561       2.08412631      -0.02402585       0.00000000
Si      -0.89456535      -2.01507300      -0.95685109       0.00000000
Si       2.32718940       0.08783568      -0.60247844       0.00000000
Si       0.82991034       2.34478260       2.62756377       0.00000000
Si       0.33251148      -3.72736377       0.14073271       0.00000000
Si      -2.07633969       2.37120498      -2.11029932       0.00000000
Si       3.37747086      -1.69547949       0.54215454       0.00000000
Si       0.28342971       3.72980727       0.78023516       0.00000000
Si       0.79579908      -1.72089189       3.39521561       0.00000000
