10
Lattice="16.28999089631971 0.0 0.0 0.0 16.28999089631971 0.0 0.0 0.0 34.56954931742767" Properties=species:S:1:pos:R:3:initial_magmoms:R:1 pbc="T T T"
Si      -1.74076569       1.56038652      -0.25837296       0.00000000
Si       2.12700159       0.56161404      -0.90278428       0.00000000
Si      -0.87985548      -1.96447626      -1.10695216       0.00000000
Si       0.55715058      -0.03222162       2.36286459       0.00000000
Si       3.08416941      -1.30280904       0.14038702       0.00000000
Si      -2.97477391      -1.76013450      -0.07926802       0.00000000
Si      -1.01302623       2.71779102      -2.21933174       0.00000000
Si       2.80313433      -0.95451255       2.40407151       0.00000000
Si      -3.81812839       0.40391055      -0.09192048       0.00000000
Si       2.28837033       0.41808285      -3.25482860       0.00000000
