10
Lattice="16.28999089631971 0.0 0.0 0.0 16.28999089631971 0.0 0.0 0.0 34.56954931742767" Properties=species:S:1:pos:R:3:initial_magmoms:R:1 pbc="T T T"
Si       1.34327340       1.34392500      -1.37344896       0.00000000
Si      -1.27265625       1.40413284       1.39152885       0.00000000
Si      -1.37134107      -1.37059173      -1.36992287       0.00000000
Si       1.39302306      -1.30834764       1.51248777       0.00000000
Si      -2.28248964      -0.47387610       2.58296903       0.00000000
Si       2.70734913       2.69812899       0.00324954       0.00000000
Si       2.69123832      -2.72448621       0.00494345       0.00000000
Si       2.70001863      -0.00843822      -2.73224043       0.00000000
Si      -0.01524744       2.70505224      -2.73158360       0.00000000
Si      -2.73430908       2.70795186       0.00411378       0.00000000
