10
Lattice="16.28999089631971 0.0 0.0 0.0 16.28999089631971 0.0 0.0 0.0 34.56954931742767" Properties=species:S:1:pos:R:3:initial_magmoms:R:1 pbc="T T T"
Si      -1.48875939      -0.25384707       1.79485200       0.00000000
Si       0.80138655      -2.24891595      -0.25066394       0.00000000
Si       2.05718265       1.17543753       0.48853714       0.00000000
Si      -1.44912582       0.34572267      -1.97724105       0.00000000
Si       3.18410856       0.23675886      -1.36217928       0.00000000
Si      -3.16307817      -1.39905036       0.60064626       0.00000000
Si      -3.42119322       0.55485369      -0.77985490       0.00000000
Si       2.63625957      -2.06926983      -1.70593907       0.00000000
Si      -0.57765969      -0.98793963       3.81665323       0.00000000
Si      -0.62411877      -3.89459691      -1.05492496       0.00000000
