10
Lattice="16.28999089631971 0.0 0.0 0.0 16.28999089631971 0.0 0.0 0.0 34.56954931742767" Properties=species:S:1:pos:R:3:initial_magmoms:R:1 pbc="T T T"
Si       0.41951637       2.06387784       0.92833120       0.00000000
Si      -0.91109970       0.73409256      -2.02180122       0.00000000
Si      -1.68474438      -1.23496119       1.16015472       0.00000000
Si       1.88685441      -1.46285829      -0.20821251       0.00000000
Si      -2.32196031       2.50848164      -1.33587184       0.00000000
Si       1.55121525       1.60968006       2.95863653       0.00000000
Si      -0.28686690      -3.19065714       1.96209958       0.00000000
Si       2.58665652       2.77441899       0.66563704       0.00000000
Si      -1.36230012       3.61463438       0.47816627       0.00000000
Si       1.92552687      -2.64600099      -2.21998856       0.00000000
