10
Lattice="16.28999089631971 0.0 0.0 0.0 16.28999089631971 0.0 0.0 0.0 34.56954931742767" Properties=species:S:1:pos:R:3:initial_magmoms:R:1 pbc="T T T"
Si       1.35754344       1.35622884      -1.35650987       0.00000000
Si      -1.35716877      -1.35847435      -1.35685557       0.00000000
Si      -1.35614250       1.35704334       1.36100392       0.00000000
Si       1.35694071      -1.35766275       1.36138418       0.00000000
Si       0.00030951       2.71432614      -2.71367657       0.00000000
Si      -2.71484253       2.71318584       0.00065682       0.00000000
Si       2.71529865       2.71274601       0.00013828       0.00000000
Si       2.71469592      -0.00031765      -2.71409140       0.00000000
Si      -2.71494027      -0.00100672      -2.71391856       0.00000000
Si      -0.00019548      -2.71590368      -2.71422968       0.00000000
