10
Lattice="16.28999089631971 0.0 0.0 0.0 16.28999089631971 0.0 0.0 0.0 34.56954931742767" Properties=species:S:1:pos:R:3:initial_magmoms:R:1 pbc="T T T"
Si      -2.05649847       0.31365906       1.34931940       0.00000000
Si       1.55243700       1.92816096      -0.40066130       0.00000000
Si       0.55806282      -2.00715184      -1.40788025       0.00000000
Si       1.83244581      -0.18654005       1.73812334       0.00000000
Si      -2.08731915       0.65136705      -1.70573166       0.00000000
Si       0.52286013      -3.26407195       0.73888996       0.00000000
Si      -0.56150001       1.73157324      -3.03531184       0.00000000
Si      -2.88065844       2.13950742       0.01413895       0.00000000
Si       3.31944588       0.64473702      -1.54066197       0.00000000
Si       2.20442796      -0.95753842      -2.92123226       0.00000000
