10
Lattice="16.28999089631971 0.0 0.0 0.0 16.28999089631971 0.0 0.0 0.0 34.56954931742767" Properties=species:S:1:pos:R:3:initial_magmoms:R:1 pbc="T T T"
Si      -0.49862061       1.11679353       1.98087085       0.00000000
Si       1.76120964      -1.43524674       0.54657945       0.00000000
Si      -1.72833642      -1.55478439      -0.31921540       0.00000000
Si       0.65852325       1.84191030      -1.38222963       0.00000000
Si      -1.16667351      -2.01386119      -2.51932645       0.00000000
Si      -1.43661510       2.92438080      -1.17443196       0.00000000
Si       1.75138677       1.50408828       2.67316103       0.00000000
Si       3.22411680      -0.09172899       1.69867946       0.00000000
Si      -1.44950049       3.13905042       1.18895117       0.00000000
Si      -1.35501849      -3.27555152       1.30164797       0.00000000
