10
Lattice="16.28999089631971 0.0 0.0 0.0 16.28999089631971 0.0 0.0 0.0 34.56954931742767" Properties=species:S:1:pos:R:3:initial_magmoms:R:1 pbc="T T T"
Si       1.50056964      -1.03866669      -1.56714226       0.00000000
Si      -1.99772415      -0.83311947      -1.06730086       0.00000000
Si      -0.21362706      -1.01625165       2.27039099       0.00000000
Si       1.62466686       2.48104845      -1.03681050       0.00000000
Si      -0.91786005      -2.86901109      -1.12651853       0.00000000
Si       0.74691279       0.89334360       3.22741493       0.00000000
Si      -0.53678808       2.63326221       2.30897063       0.00000000
Si       2.93550687       0.80547534      -2.24487865       0.00000000
Si       3.11186241      -2.17396566      -0.24257466       0.00000000
Si      -2.52165942      -1.31577588       2.81897547       0.00000000
