10
Lattice="16.28999089631971 0.0 0.0 0.0 16.28999089631971 0.0 0.0 0.0 34.56954931742767" Properties=species:S:1:pos:R:3:initial_magmoms:R:1 pbc="T T T"
Si       2.15089902      -0.84615147      -0.46188401       0.00000000
Si      -0.48244464       2.17139184      -0.85926120       0.00000000
Si      -1.96108794      -1.35752715      -0.36920299       0.00000000
Si      -1.05492411      -0.95016312       1.98712794       0.00000000
Si       1.01203254      -2.09373741       2.48696934       0.00000000
Si      -2.73706209       2.26266471      -0.35890126       0.00000000
Si      -3.44688255       0.24868314      -1.25615442       0.00000000
Si       2.23969581      -1.31131242      -2.71388399       0.00000000
Si       2.38914027      -2.87068896       0.70895271       0.00000000
Si      -0.01031157      -1.69860717      -3.40617417       0.00000000
