10
Lattice="16.28999089631971 0.0 0.0 0.0 16.28999089631971 0.0 0.0 0.0 34.56954931742767" Properties=species:S:1:pos:R:3:initial_magmoms:R:1 pbc="T T T"
Si       1.41939657       1.32737436       1.38169868       0.00000000
Si      -1.29622788      -1.51075089       1.32704420       0.00000000
Si       1.60445097      -1.18136709      -1.43363458       0.00000000
Si      -2.09365596       1.79999613      -0.30092809       0.00000000
Si      -0.02309922       2.56150476       2.76300185       0.00000000
Si       2.06461089       3.17799981      -0.24312778       0.00000000
Si      -3.18159990      -0.09886401      -2.13785126       0.00000000
Si      -2.72331333      -0.17195724       2.73906243       0.00000000
Si       2.72367171      -0.15832251       2.75025259       0.00000000
Si       0.38913552      -2.81225673      -2.71180981       0.00000000
