10
Lattice="16.28999089631971 0.0 0.0 0.0 16.28999089631971 0.0 0.0 0.0 34.56954931742767" Properties=species:S:1:pos:R:3:initial_magmoms:R:1 pbc="T T T"
Si       1.19749419       1.57784940       1.34231353       0.00000000
Si      -1.69948683      -1.25195166       1.15138581       0.00000000
Si      -1.59050673       1.43099505      -1.26149891       0.00000000
Si       1.88691957      -1.81213218      -0.35632933       0.00000000
Si       1.73423340       1.23329961      -2.10955957       0.00000000
Si      -0.20079054      -2.42862723       2.64980030       0.00000000
Si       2.54102823       0.26728632       2.67132332       0.00000000
Si      -0.13051548       2.50646085      -2.72209776       0.00000000
Si       3.01982391       2.43729351      -0.07610840       0.00000000
Si      -2.90680389       0.27341136       2.62720563       0.00000000
