10
Lattice="16.28999089631971 0.0 0.0 0.0 16.28999089631971 0.0 0.0 0.0 34.56954931742767" Properties=species:S:1:pos:R:3:initial_magmoms:R:1 pbc="T T T"
Si       1.36743147       1.34566803      -1.34530933       0.00000000
Si      -1.35322659       1.35472527       1.35543822       0.00000000
Si       1.35868374      -1.35980775       1.35523080       0.00000000
Si      -1.37438730      -1.35024552      -1.36683235       0.00000000
Si       0.02389743       2.65623111      -2.67431911       0.00000000
Si       0.06810849      -2.58437592      -2.74813551       0.00000000
Si      -2.71098180       2.71221984      -0.00788186       0.00000000
Si      -2.71225242      -0.00237834       2.71219008       0.00000000
Si       0.00231318       2.71235016       2.71225922       0.00000000
Si      -2.71186146      -2.71510317      -0.00245444       0.00000000
