10
Lattice="16.28999089631971 0.0 0.0 0.0 16.28999089631971 0.0 0.0 0.0 34.56954931742767" Properties=species:S:1:pos:R:3:initial_magmoms:R:1 pbc="T T T"
Si      -1.39302306       1.30834764      -1.51248777       0.00000000
Si       1.29821526      -1.41613857      -1.50754432       0.00000000
Si       1.88346609       0.86923440       1.31412758       0.00000000
Si      -1.49657859      -1.62193014       1.70099562       0.00000000
Si      -0.28110024       2.26751913       2.83200820       0.00000000
Si      -2.66567931       2.71248048      -0.12095892       0.00000000
Si       2.55420684      -2.85200433      -0.06198324       0.00000000
Si       2.76918597       2.74616820      -0.03380904       0.00000000
Si      -3.67551270       0.83447154       1.07048126       0.00000000
Si      -0.04974966       2.65227264      -2.88593673       0.00000000
