10
Lattice="16.28999089631971 0.0 0.0 0.0 16.28999089631971 0.0 0.0 0.0 34.56954931742767" Properties=species:S:1:pos:R:3:initial_magmoms:R:1 pbc="T T T"
Si      -0.92761711       1.90609290       1.26445111       0.00000000
Si       1.67495735      -1.00677087       1.51514962       0.00000000
Si       0.94294991       0.20681784      -2.34903676       0.00000000
Si      -1.81886388      -1.76163318      -0.22297372       0.00000000
Si       0.87664961       2.52366309      -2.02453222       0.00000000
Si      -1.12117947       3.23579673      -0.85494000       0.00000000
Si       0.29357838      -2.34781906       2.82152122       0.00000000
Si      -2.36145120       0.58139010       2.78631903       0.00000000
Si       2.45233244      -2.82794563       0.08849810       0.00000000
Si      -3.57328059      -0.81889830       1.29642796       0.00000000
