10
Lattice="16.28999089631971 0.0 0.0 0.0 16.28999089631971 0.0 0.0 0.0 34.56954931742767" Properties=species:S:1:pos:R:3:initial_magmoms:R:1 pbc="T T T"
Si      -0.96053985      -1.90959525      -0.95702394       0.00000000
Si      -1.28370087       1.73991861      -0.91844430       0.00000000
Si      -0.34911099       0.12298950       2.33759423       0.00000000
Si       2.32485993       0.22651245      -0.59020625       0.00000000
Si      -0.74691279      -0.89334360      -3.22741493       0.00000000
Si       0.79845435       2.06904177       3.02587434       0.00000000
Si       3.52157220       0.17909226       1.46388295       0.00000000
Si      -0.09174528      -3.83942268       0.13271257       0.00000000
Si       0.70117047      -1.66032567       3.48222722       0.00000000
Si      -3.61002690       1.33227765      -0.89383077       0.00000000
