10
Lattice="16.28999089631971 0.0 0.0 0.0 16.28999089631971 0.0 0.0 0.0 34.56954931742767" Properties=species:S:1:pos:R:3:initial_magmoms:R:1 pbc="T T T"
Si      -1.79098776      -1.41012756      -0.36187424       0.00000000
Si      -1.21585302       1.93595247       0.49486338       0.00000000
Si       1.23329961       0.21843261      -2.08167571       0.00000000
Si      -0.24364953      -1.50257331       2.63119358       0.00000000
Si      -1.50995268      -1.75842405      -2.62555874       0.00000000
Si       0.43719102       3.11855760       1.78382431       0.00000000
Si       0.74466477      -1.84969692      -3.12591867       0.00000000
Si      -1.33159347      -3.40143345       0.79427041       0.00000000
Si       2.02769775       1.68756255       3.04532322       0.00000000
Si      -1.51451388       3.49039314      -1.38143453       0.00000000
