10
Lattice="16.28999089631971 0.0 0.0 0.0 16.28999089631971 0.0 0.0 0.0 34.56954931742767" Properties=species:S:1:pos:R:3:initial_magmoms:R:1 pbc="T T T"
Si      -1.36935369       1.25002433       1.39951787       0.00000000
Si       0.81204021       1.91762526      -1.21187633       0.00000000
Si       1.36573731      -1.44666603       1.36930061       0.00000000
Si      -1.36575360      -1.43078328      -1.45069954       0.00000000
Si      -2.33178318       0.41909283      -2.53251962       0.00000000
Si      -2.70036072       2.59606792       0.00882907       0.00000000
Si       0.00703728       2.60767781       2.73866345       0.00000000
Si      -2.72530071      -2.72380203      -0.03882508       0.00000000
Si      -2.71000440      -0.10728594       2.74592306       0.00000000
Si       2.72249883      -0.10801899       2.73880173       0.00000000
