10
Lattice="16.28999089631971 0.0 0.0 0.0 16.28999089631971 0.0 0.0 0.0 34.56954931742767" Properties=species:S:1:pos:R:3:initial_magmoms:R:1 pbc="T T T"
Si       1.26576558      -1.44425511      -1.47000177       0.00000000
Si      -1.45485990       1.26030843      -1.47542919       0.00000000
Si      -0.88571988      -1.87693380       1.34793662       0.00000000
Si       1.02385908       1.65902247       1.52693785       0.00000000
Si       2.67022422       2.70863590       0.01358584       0.00000000
Si       0.98865639       0.40210236       3.67370806       0.00000000
Si      -2.77348653       2.65425466      -0.06146469       0.00000000
Si       2.60887608      -0.09047466      -2.85136716       0.00000000
Si      -0.10567323       2.62584728      -2.84998438       0.00000000
Si       2.52504774      -2.95020045      -0.02319618       0.00000000
