10
Lattice="16.28999089631971 0.0 0.0 0.0 16.28999089631971 0.0 0.0 0.0 34.56954931742767" Properties=species:S:1:pos:R:3:initial_magmoms:R:1 pbc="T T T"
Si      -2.06777115       0.48913983      -0.96908872       0.00000000
Si       1.97117145       1.36989126      -0.16119790       0.00000000
Si       0.27978075      -2.28659472       0.80993042       0.00000000
Si       0.09679518      -0.90914490      -2.48696934       0.00000000
Si      -1.88589330       1.27676133       1.61031965       0.00000000
Si       2.50106886      -1.83194082       1.47563661       0.00000000
Si      -1.93495878       2.99884239       0.02489009       0.00000000
Si       3.67691364      -0.38799522      -0.27610714       0.00000000
Si      -3.82000500       0.14123430       1.01710585       0.00000000
Si       2.00637414       2.62681137      -2.30796811       0.00000000
