10
Lattice="16.28999089631971 0.0 0.0 0.0 16.28999089631971 0.0 0.0 0.0 34.56954931742767" Properties=species:S:1:pos:R:3:initial_magmoms:R:1 pbc="T T T"
Si       1.26572974       1.44651942      -1.37783726       0.00000000
Si      -1.28369044      -1.34021088      -1.50128519       0.00000000
Si       1.29185890      -1.37665161       1.51912167       0.00000000
Si      -1.41950304       1.32851466       1.49233025       0.00000000
Si       2.60998054      -2.75964003       0.13636312       0.00000000
Si      -2.71752453      -2.66491368       0.02058272       0.00000000
Si       2.26929148       0.12509091      -3.14005559       0.00000000
Si       2.73127588       2.76017760       0.08784473       0.00000000
Si      -1.47725280      -0.01050705      -3.62067631       0.00000000
Si       2.65912747      -0.02723688       2.88588487       0.00000000
