10
Lattice="16.28999089631971 0.0 0.0 0.0 16.28999089631971 0.0 0.0 0.0 34.56954931742767" Properties=species:S:1:pos:R:3:initial_magmoms:R:1 pbc="T T T"
Si      -2.28752325       0.07939746      -0.27634913       0.00000000
Si       0.69115212      -0.26054226       2.20605702       0.00000000
Si       0.82870488       1.91970224      -1.03141765       0.00000000
Si       0.65598201      -1.86681771      -1.27475284       0.00000000
Si       1.96705008       0.94283262      -2.80753295       0.00000000
Si      -2.83537224      -2.22663123      -0.62010892       0.00000000
Si       2.70518256      -1.25019234      -2.15679539       0.00000000
Si       3.04355844       0.04206078       2.14718505       0.00000000
Si      -2.66084118       1.80016459      -1.89721250       0.00000000
Si      -0.93250476       3.35494898      -1.57799710       0.00000000
