10
Lattice="16.28999089631971 0.0 0.0 0.0 16.28999089631971 0.0 0.0 0.0 34.56954931742767" Properties=species:S:1:pos:R:3:initial_magmoms:R:1 pbc="T T T"
Si      -1.35715248       1.35654649       1.35758153       0.00000000
Si      -1.35687555      -1.35792855      -1.35761610       0.00000000
Si       1.35814617       1.35780082      -1.35682100       0.00000000
Si       1.35770634      -1.35816560       1.35775438       0.00000000
Si       0.00060273       2.71306366       2.71422968       0.00000000
Si       2.71404432      -0.00107188       2.71433339       0.00000000
Si      -0.00320913       2.71405735      -2.71454081       0.00000000
Si      -2.71469592       0.00031765       2.71409140       0.00000000
Si      -2.71438641       2.71464379       0.00041483       0.00000000
Si       2.71554300       2.71441573       0.00024199       0.00000000
