10
Lattice="16.28999089631971 0.0 0.0 0.0 16.28999089631971 0.0 0.0 0.0 34.56954931742767" Properties=species:S:1:pos:R:3:initial_magmoms:R:1 pbc="T T T"
Si      -1.35536058       1.35488817      -1.36010511       0.00000000
Si       1.35808101      -1.35924737      -1.36000140       0.00000000
Si      -1.35216774      -1.35869677       1.37832327       0.00000000
Si       1.35425286       1.36067112       1.37853069       0.00000000
Si      -2.71371852      -2.71552059       0.00114080       0.00000000
Si      -2.71311579      -0.00162900      -2.71675326       0.00000000
Si       2.71559760       2.71469592      -0.00076053       0.00000000
Si       0.00193851       2.71393029      -2.71689154       0.00000000
Si      -2.71538010       2.71564074       0.00217788       0.00000000
Si       2.71529677      -2.71588907       0.00273100       0.00000000
