10
Lattice="16.28999089631971 0.0 0.0 0.0 16.28999089631971 0.0 0.0 0.0 34.56954931742767" Properties=species:S:1:pos:R:3:initial_magmoms:R:1 pbc="T T T"
Si      -1.46290716      -1.34351775      -1.15210001       0.00000000
Si       1.68164928      -1.53926002       0.60005857       0.00000000
Si       1.13189436       1.02302829      -1.79868923       0.00000000
Si      -1.47273003       1.59581727       0.97448157       0.00000000
Si       3.18868509       0.13331736       1.30320360       0.00000000
Si      -0.52641135       3.42671553      -0.19123885       0.00000000
Si       3.05367683       1.72201590      -0.52414380       0.00000000
Si      -3.22411680       0.09172899      -1.69867946       0.00000000
Si       1.38748446      -0.69362168      -3.36261651       0.00000000
Si      -0.43030035       2.77798257      -2.41668940       0.00000000
