10
Lattice="16.28999089631971 0.0 0.0 0.0 16.28999089631971 0.0 0.0 0.0 34.56954931742767" Properties=species:S:1:pos:R:3:initial_magmoms:R:1 pbc="T T T"
Si      -1.44249579       1.23413040       1.38130317       0.00000000
Si      -1.41939657      -1.32737436      -1.38169868       0.00000000
Si       1.30427514      -1.48569687       1.36855391       0.00000000
Si       0.64521432       1.85062545      -1.62482646       0.00000000
Si       2.51022384       2.61389340      -0.13803974       0.00000000
Si      -0.06810849       2.58437592       2.74813551       0.00000000
Si       0.18505440      -2.50874145      -2.81533326       0.00000000
Si      -2.94119208       2.41080597      -0.11711133       0.00000000
Si       2.64956850      -0.13377348       2.74402174       0.00000000
Si       2.70198972      -2.77037514      -0.12584360       0.00000000
