10
Lattice="16.28999089631971 0.0 0.0 0.0 16.28999089631971 0.0 0.0 0.0 34.56954931742767" Properties=species:S:1:pos:R:3:initial_magmoms:R:1 pbc="T T T"
Si       1.35528486      -1.35594702       1.35861862       0.00000000
Si       1.35625257       1.35798327      -1.35740868       0.00000000
Si      -1.35837423      -1.35671265      -1.35751239       0.00000000
Si      -1.36010097       1.35993807       1.35844577       0.00000000
Si       2.71362960       2.71406061      -0.00034570       0.00000000
Si       2.71294053      -2.71520091       0.00003457       0.00000000
Si       2.71400752       0.00013032      -2.71474823       0.00000000
Si      -0.00073305      -2.71440270      -2.71471366       0.00000000
Si      -2.71634121       0.00078192      -2.71474823       0.00000000
Si      -0.00128691       2.71595025      -2.71516306       0.00000000
