10
Lattice="16.28999089631971 0.0 0.0 0.0 16.28999089631971 0.0 0.0 0.0 34.56954931742767" Properties=species:S:1:pos:R:3:initial_magmoms:R:1 pbc="T T T"
Si       1.67242914      -1.35925389      -1.05630774       0.00000000
Si      -0.93913479      -1.74667896       1.35561106       0.00000000
Si      -1.65903876       1.00110195      -1.42291801       0.00000000
Si       0.54257103       1.90809657       1.37230817       0.00000000
Si      -1.55624886       2.50996320       2.23035943       0.00000000
Si      -2.75296113       2.55738339       0.17627023       0.00000000
Si       1.41837030      -1.08232389      -3.38598554       0.00000000
Si      -1.03524579      -1.09794600       3.58106162       0.00000000
Si      -2.71287144      -0.73643832      -2.70351312       0.00000000
Si       1.80224415       1.29485952       3.27086888       0.00000000
