10
Lattice="16.28999089631971 0.0 0.0 0.0 16.28999089631971 0.0 0.0 0.0 34.56954931742767" Properties=species:S:1:pos:R:3:initial_magmoms:R:1 pbc="T T T"
Si      -0.88793532       1.37497374       1.72260161       0.00000000
Si      -1.07134443      -0.35865693      -2.09083665       0.00000000
Si       1.87932843       1.18280061      -0.90461647       0.00000000
Si       0.51481287      -2.02831677       1.21221649       0.00000000
Si      -0.02912652      -2.41202772      -2.47939860       0.00000000
Si       0.80065350       3.31716528      -0.90703634       0.00000000
Si       2.56604967      -2.58962130       0.26487203       0.00000000
Si       3.43548999       1.03777074       0.80899705       0.00000000
Si      -0.14599098       3.54400353       1.24841083       0.00000000
Si      -3.20895081       1.30790781       1.58518757       0.00000000
