10
Lattice="16.28999089631971 0.0 0.0 0.0 16.28999089631971 0.0 0.0 0.0 34.56954931742767" Properties=species:S:1:pos:R:3:initial_magmoms:R:1 pbc="T T T"
Si      -1.35047358      -1.36601424      -1.33919052       0.00000000
Si       1.35734487      -1.35635427       1.36114220       0.00000000
Si      -1.35751086       1.35897696       1.36072736       0.00000000
Si       1.37603259       1.36816452      -1.39086165       0.00000000
Si      -2.69400762      -0.05545116      -2.66820030       0.00000000
Si       2.71155914      -2.71036278      -0.00006914       0.00000000
Si       2.71431866       2.71303434       0.00314583       0.00000000
Si      -2.71790505      -2.71168227       0.00611881       0.00000000
Si      -2.71507059       2.71495656       0.00089881       0.00000000
Si      -0.00109143      -2.71349046       2.71813604       0.00000000
