10
Lattice="16.28999089631971 0.0 0.0 0.0 16.28999089631971 0.0 0.0 0.0 34.56954931742767" Properties=species:S:1:pos:R:3:initial_magmoms:R:1 pbc="T T T"
Si      -1.34353404       1.31056308      -1.32900978       0.00000000
Si       1.35047358       1.36601424       1.33919052       0.00000000
Si      -1.36743147      -1.34566803       1.34530933       0.00000000
Si       1.21090086      -1.31615055      -1.54086593       0.00000000
Si       0.47879568       2.17000719      -2.74743172       0.00000000
Si      -2.54102823      -0.26728632      -2.67132332       0.00000000
Si      -0.65410866      -2.07941850      -3.02765264       0.00000000
Si       2.31844167       0.49909302      -2.95457257       0.00000000
Si      -0.00874773      -2.70547578       2.70054013       0.00000000
Si       2.70781845       0.00965997       2.70033271       0.00000000
