10
Lattice="16.28999089631971 0.0 0.0 0.0 16.28999089631971 0.0 0.0 0.0 34.56954931742767" Properties=species:S:1:pos:R:3:initial_magmoms:R:1 pbc="T T T"
Si      -1.34892603      -1.35021294      -1.37203161       0.00000000
Si       1.37007045       1.36376622      -1.37078711       0.00000000
Si      -1.43213535       1.21762863       1.45683076       0.00000000
Si       1.35298224      -1.36081773       1.40680860       0.00000000
Si       0.00715131       2.34548307       2.90208072       0.00000000
Si      -2.70449838      -2.70003492       0.00276557       0.00000000
Si      -2.69141751       2.72357397       0.01002517       0.00000000
Si      -2.70317889       0.00666261      -2.73068480       0.00000000
Si       2.72351600      -2.71137276       0.00356067       0.00000000
Si       2.71038951       2.72565909      -0.01396611       0.00000000
