10
Lattice="16.28999089631971 0.0 0.0 0.0 16.28999089631971 0.0 0.0 0.0 34.56954931742767" Properties=species:S:1:pos:R:3:initial_magmoms:R:1 pbc="T T T"
Si       1.35583299       1.35637056      -1.35733954       0.00000000
Si       1.35425286      -1.35687555       1.35865319       0.00000000
Si      -1.35904212      -1.35834165      -1.35713213       0.00000000
Si      -1.36156707       1.35650088       1.36249041       0.00000000
Si      -0.00143352       2.71329498      -2.71471366       0.00000000
Si       2.71306692      -0.00086337      -2.71495564       0.00000000
Si       2.71375110       2.71498914      -0.00006914       0.00000000
Si      -0.00198738      -2.71603170      -2.71454081       0.00000000
Si      -2.71599912      -0.00143352      -2.71478279       0.00000000
Si      -2.71619460       2.71490769      -0.00020742       0.00000000
