10
Lattice="16.28999089631971 0.0 0.0 0.0 16.28999089631971 0.0 0.0 0.0 34.56954931742767" Properties=species:S:1:pos:R:3:initial_magmoms:R:1 pbc="T T T"
Si       1.43928666       1.12785444       1.44524996       0.00000000
Si       1.43213535      -1.21762863      -1.45683076       0.00000000
Si      -1.73840364      -0.93937914       1.33576813       0.00000000
Si      -1.25928216       1.50594534      -1.44680559       0.00000000
Si       2.78511759      -2.57844636      -0.05002217       0.00000000
Si      -2.74002687      -2.64797208      -0.00497802       0.00000000
Si       0.08320932      -2.56784157      -2.82886237       0.00000000
Si      -3.41076762       1.07326665       1.37113280       0.00000000
Si       2.72842839       2.72148885      -0.00010371       0.00000000
Si      -2.63261061       0.14553486      -2.82502515       0.00000000
