10
Lattice="16.28999089631971 0.0 0.0 0.0 16.28999089631971 0.0 0.0 0.0 34.56954931742767" Properties=species:S:1:pos:R:3:initial_magmoms:R:1 pbc="T T T"
Si       1.56722832       1.13756328       1.37331068       0.00000000
Si      -1.27000098       1.43218422      -1.48064919       0.00000000
Si       1.42433244      -1.28546019      -1.49019040       0.00000000
Si      -1.76770935      -0.80772336       1.53392090       0.00000000
Si      -2.53231536      -2.51615340      -0.02893473       0.00000000
Si       3.33826083      -0.67259781       1.35969027       0.00000000
Si       2.73968478      -2.58413157      -0.04659978       0.00000000
Si      -2.64053474       2.78273925      -0.07740126       0.00000000
Si      -2.62705717       0.07745895      -2.85606862       0.00000000
Si       0.09174528      -2.63855646      -2.85651803       0.00000000
