10
Lattice="16.28999089631971 0.0 0.0 0.0 16.28999089631971 0.0 0.0 0.0 34.56954931742767" Properties=species:S:1:pos:R:3:initial_magmoms:R:1 pbc="T T T"
Si       0.57542049       2.10717666       0.90057183       0.00000000
Si       0.97659594      -0.06393825      -2.21407716       0.00000000
Si       0.31051998      -2.10339738       1.19050680       0.00000000
Si      -2.29586373      -0.47628702       0.75448084       0.00000000
Si      -1.92067245      -2.83718043       0.57624014       0.00000000
Si      -1.32134706       3.25514925       0.05883741       0.00000000
Si      -3.34682937       0.27326475      -1.30047260       0.00000000
Si       1.81995042      -2.22798330      -2.20142470       0.00000000
Si       2.30834906      -2.81553102       0.02091459       0.00000000
Si       2.49420167       2.69047269      -0.69951522       0.00000000
