10
Lattice="16.28999089631971 0.0 0.0 0.0 16.28999089631971 0.0 0.0 0.0 34.56954931742767" Properties=species:S:1:pos:R:3:initial_magmoms:R:1 pbc="T T T"
Si       1.33828607       1.34486982       1.39400748       0.00000000
Si      -1.37603259      -1.36816452       1.39086165       0.00000000
Si      -1.26227952       1.35133695      -1.55124025       0.00000000
Si       1.43108043      -1.31026986      -1.55299293       0.00000000
Si      -2.24771049      -0.56417157      -2.69576058       0.00000000
Si      -0.40806450      -2.23508574      -2.90290144       0.00000000
Si       2.69492705       2.69457087       0.02589261       0.00000000
Si       2.69105003      -2.72582199       0.00768482       0.00000000
Si      -2.72997594       2.70265761      -0.00628129       0.00000000
Si       2.69600219      -0.00768888       2.75186557       0.00000000
