10
Lattice="16.28999089631971 0.0 0.0 0.0 16.28999089631971 0.0 0.0 0.0 34.56954931742767" Properties=species:S:1:pos:R:3:initial_magmoms:R:1 pbc="T T T"
Si      -2.31313832      -0.38770200      -0.32187725       0.00000000
Si       0.79302978      -0.46068120      -2.22354922       0.00000000
Si       0.24338889       2.30422050       0.68845296       0.00000000
Si       1.33796286      -1.60625916       1.22780737       0.00000000
Si       2.51545293       2.62400949      -0.01593657       0.00000000
Si      -2.56719716      -0.11077200      -2.65155505       0.00000000
Si       3.53541870      -1.10832273       0.27690224       0.00000000
Si       3.14962263      -0.73023183      -2.04150588       0.00000000
Si       0.89700885      -1.29445227       3.56674981       0.00000000
Si      -0.98622755      -1.65439611      -3.42179961       0.00000000
