10
Lattice="16.28999089631971 0.0 0.0 0.0 16.28999089631971 0.0 0.0 0.0 34.56954931742767" Properties=species:S:1:pos:R:3:initial_magmoms:R:1 pbc="T T T"
Si       1.41409647      -1.21345839      -1.47069316       0.00000000
Si       1.61164205       1.14691374       1.37337982       0.00000000
Si      -1.28557422       1.49450976      -1.44058306       0.00000000
Si      -1.28914173      -1.59363441       1.44535366       0.00000000
Si       2.74521428      -2.62384659      -0.14495020       0.00000000
Si       0.07377741      -2.57535126      -2.82751416       0.00000000
Si       0.57145550       1.68692724       3.39659840       0.00000000
Si      -2.72842839      -2.72148885       0.00010371       0.00000000
Si      -2.64460005       0.13823694      -2.82806727       0.00000000
Si       2.72929895       2.76482025       0.04037726       0.00000000
