10
Lattice="16.28999089631971 0.0 0.0 0.0 16.28999089631971 0.0 0.0 0.0 34.56954931742767" Properties=species:S:1:pos:R:3:initial_magmoms:R:1 pbc="T T T"
Si      -0.60258339       0.70838694       2.10414593       0.00000000
Si       0.94013078       1.96900488      -0.80118432       0.00000000
Si       2.02785643      -1.26403884      -0.03014466       0.00000000
Si      -2.19040227      -0.84499488      -0.61568402       0.00000000
Si       0.70704206      -2.66758524      -1.51850287       0.00000000
Si      -0.92046645      -1.31155677      -2.75242905       0.00000000
Si       1.61288497       1.56023991       2.96682952       0.00000000
Si       1.98031733       1.42899138      -2.82440290       0.00000000
Si      -2.75283081       1.94636178       1.64554604       0.00000000
Si       3.42063026      -0.17707230      -1.68626899       0.00000000
