10
Lattice="16.28999089631971 0.0 0.0 0.0 16.28999089631971 0.0 0.0 0.0 34.56954931742767" Properties=species:S:1:pos:R:3:initial_magmoms:R:1 pbc="T T T"
Si      -0.69115212       0.26054226      -2.20605702       0.00000000
Si      -0.77812443       1.47217617       1.67921680       0.00000000
Si       2.35240632       0.30260304      -0.05887198       0.00000000
Si      -0.94868073      -2.08902960       0.83699840       0.00000000
Si      -3.08803014       0.93182058       1.50301571       0.00000000
Si      -2.73896802      -1.31530347       2.17622348       0.00000000
Si       0.95718411      -3.38348187       1.45119592       0.00000000
Si      -0.03517011      -1.60627545      -3.48080987       0.00000000
Si       3.37510881      -1.73754027      -0.65346856       0.00000000
Si       3.13036785       1.06756515       2.04472085       0.00000000
