10
Lattice="16.28999089631971 0.0 0.0 0.0 16.28999089631971 0.0 0.0 0.0 34.56954931742767" Properties=species:S:1:pos:R:3:initial_magmoms:R:1 pbc="T T T"
Si       0.44095401      -0.31180689      -2.33894244       0.00000000
Si       0.52608555       2.27121696       0.62035091       0.00000000
Si      -2.33773392      -0.53664147       0.41583734       0.00000000
Si       1.27625634      -1.29922524       1.61661131       0.00000000
Si      -2.20272566      -2.12534001       2.24318474       0.00000000
Si       0.48506733       2.24946981       3.02210626       0.00000000
Si       2.75872779       2.61695592      -0.08262127       0.00000000
Si       0.03837924      -2.62915713      -2.79819916       0.00000000
Si       1.53836244       0.15882750       3.52315759       0.00000000
Si       3.51758115      -1.39958793       0.81674063       0.00000000
