10
Lattice="16.28999089631971 0.0 0.0 0.0 16.28999089631971 0.0 0.0 0.0 34.56954931742767" Properties=species:S:1:pos:R:3:initial_magmoms:R:1 pbc="T T T"
Si       1.28369044       1.34021088       1.50128519       0.00000000
Si       0.92761711      -1.90609290      -1.26445111       0.00000000
Si      -1.43383409      -1.32470280       1.52186791       0.00000000
Si      -0.19356236       1.32970383      -2.11939111       0.00000000
Si      -2.42475479       0.59592078      -2.73365778       0.00000000
Si       2.54942019       2.78673030       0.12344793       0.00000000
Si      -2.64566348      -2.72499120       0.03197685       0.00000000
Si       1.80426672       0.61757019      -3.28898333       0.00000000
Si       2.60257446      -2.91286377       0.25069851       0.00000000
Si       2.57554935      -0.03644073       3.02040686       0.00000000
