10
Lattice="16.28999089631971 0.0 0.0 0.0 16.28999089631971 0.0 0.0 0.0 34.56954931742767" Properties=species:S:1:pos:R:3:initial_magmoms:R:1 pbc="T T T"
Si      -1.00356174       1.32142851       1.76221833       0.00000000
Si       1.29481065       1.46772900      -1.43041961       0.00000000
Si      -1.74871521      -0.84773160      -1.65021293       0.00000000
Si       1.48595751      -1.50891012       1.60098586       0.00000000
Si       2.12545404      -2.88218970      -0.23206551       0.00000000
Si      -3.74654429      -0.13559796      -0.48062071       0.00000000
Si       3.54079440       0.54543807      -1.38921269       0.00000000
Si      -2.26929148      -0.12509091       3.14005559       0.00000000
Si       1.64354697       3.71815992      -0.23846088       0.00000000
Si      -1.68241491      -3.16457685      -1.97471747       0.00000000
