10
Lattice="16.28999089631971 0.0 0.0 0.0 16.28999089631971 0.0 0.0 0.0 34.56954931742767" Properties=species:S:1:pos:R:3:initial_magmoms:R:1 pbc="T T T"
Si       1.35421427      -1.35400851      -1.36121133       0.00000000
Si       1.35714810       1.35762489       1.35723583       0.00000000
Si      -1.35843630      -1.35713619       1.35699385       0.00000000
Si      -1.35734487       1.35635427      -1.36114220       0.00000000
Si      -2.70781845      -0.00965997      -2.70033271       0.00000000
Si       2.71407089      -2.71494027       0.00010371       0.00000000
Si      -0.00052395       2.71471221       2.71467909       0.00000000
Si       2.71452701       0.00006516       2.71492107       0.00000000
Si      -0.00089682      -2.71510317       2.71474823       0.00000000
Si      -2.71485573       2.71533123      -0.00041483       0.00000000
