10
Lattice="16.28999089631971 0.0 0.0 0.0 16.28999089631971 0.0 0.0 0.0 34.56954931742767" Properties=species:S:1:pos:R:3:initial_magmoms:R:1 pbc="T T T"
Si       1.35060390      -1.26343611      -1.44469684       0.00000000
Si       1.32081438       1.40354640       1.48835821       0.00000000
Si      -1.62750851       1.35602847      -1.23392618       0.00000000
Si      -0.48660578      -1.24027173       2.13601908       0.00000000
Si      -0.70704206       2.66758524       1.51850287       0.00000000
Si       0.23311804      -3.19525092       1.00531763       0.00000000
Si      -2.89744433       1.82259036       0.90281885       0.00000000
Si      -0.28167758      -2.35027233      -2.72919830       0.00000000
Si       2.71358820       2.49051294      -0.16776612       0.00000000
Si       2.40684750       0.32581629      -2.82423005       0.00000000
