10
Lattice="16.28999089631971 0.0 0.0 0.0 16.28999089631971 0.0 0.0 0.0 34.56954931742767" Properties=species:S:1:pos:R:3:initial_magmoms:R:1 pbc="T T T"
Si      -0.86454288       1.55957202      -1.55404039       0.00000000
Si       0.55975698      -1.59793497      -1.68101441       0.00000000
Si       1.80853209       1.01558376       1.33023700       0.00000000
Si      -1.91878118      -0.58329603       1.60008705       0.00000000
Si      -1.51760572      -2.75441094      -1.51456194       0.00000000
Si      -0.68913868       3.56123835      -0.26117309       0.00000000
Si       0.90785799       1.83943422      -3.04592469       0.00000000
Si      -2.49420167      -2.69047269       0.69951522       0.00000000
Si       1.28749644      -0.44053047      -3.64197320       0.00000000
Si      -3.81554873       0.56467656       0.75835263       0.00000000
