10
Lattice="16.28999089631971 0.0 0.0 0.0 16.28999089631971 0.0 0.0 0.0 34.56954931742767" Properties=species:S:1:pos:R:3:initial_magmoms:R:1 pbc="T T T"
Si       1.35771611      -1.35255870       1.35785809       0.00000000
Si       1.35664097       1.34970105      -1.36811488       0.00000000
Si      -1.35586964       1.36125798       1.35761610       0.00000000
Si      -1.33828607      -1.34486982      -1.39400748       0.00000000
Si      -0.00709592       2.58131407      -2.83580394       0.00000000
Si       2.71380974      -2.71221984      -0.00421749       0.00000000
Si       0.00017430      -2.71176372       2.71523220       0.00000000
Si      -2.71431866      -2.71303434      -0.00314583       0.00000000
Si      -2.71433495       0.00286704       2.71526677       0.00000000
Si       2.71499891       0.00288333       2.71543962       0.00000000
