10
Lattice="10.86 0.0 0.0 0.0 10.86 0.0 0.0 0.0 10.86" Properties=species:S:1:pos:R:3:initial_magmoms:R:1 pbc="T T T"
Si       1.31809992       1.00577718       1.59776664       0.00000000
Si       1.31809992      -1.70922282      -1.11723336       0.00000000
Si      -1.39690008      -1.70922282       1.59776664       0.00000000
Si      -0.07027506       2.35963908      -2.53234566       0.00000000
Si       2.67559992       2.36327718       0.24026664       0.00000000
Si       2.67559992      -0.35172282      -2.47473336       0.00000000
Si      -2.95561416      -0.22677852      -2.32562556       0.00000000
Si      -2.76504288      -0.25635030       2.64391044       0.00000000
Si       0.23321850       2.14087524       3.27130350       0.00000000
Si      -0.03940008      -3.06672282      -2.47473336       0.00000000
