10
Lattice="10.86 0.0 0.0 0.0 10.86 0.0 0.0 0.0 10.86" Properties=species:S:1:pos:R:3:initial_magmoms:R:1 pbc="T T T"
Si      -1.22543154      -1.38677856      -1.13696598       0.00000000
Si       1.63829616       1.20357036      -1.14129912       0.00000000
Si      -1.24822668       1.48208592       1.69083684       0.00000000
Si      -2.43701658      -0.06777726      -2.44168638       0.00000000
Si      -2.43701658       2.64722274       0.27331362       0.00000000
Si       0.27798342       2.64722274      -2.44168638       0.00000000
Si      -2.43701658      -2.78277726       0.27331362       0.00000000
Si       0.27798342      -2.78277726      -2.44168638       0.00000000
Si      -2.43701658      -0.06777726       2.98831362       0.00000000
Si       2.99298342      -0.06777726      -2.44168638       0.00000000
