10
Lattice="10.86 0.0 0.0 0.0 10.86 0.0 0.0 0.0 10.86" Properties=species:S:1:pos:R:3:initial_magmoms:R:1 pbc="T T T"
Si       1.37080350      -1.15580808      -1.42751442       0.00000000
Si      -1.27183632      -1.13735694       1.59731052       0.00000000
Si       1.37080350       1.55919192       1.28748558       0.00000000
Si      -1.34419650       1.55919192      -1.42751442       0.00000000
Si      -2.71869240      -2.31526512       0.02317524       0.00000000
Si       0.01330350      -2.51330808      -2.78501442       0.00000000
Si       2.60131752      -2.75058822       0.05744940       0.00000000
Si       2.89417914       0.56323218       2.41058334       0.00000000
Si      -2.70169650       0.20169192      -2.78501442       0.00000000
Si       2.72830350       0.20169192      -2.78501442       0.00000000
