10
Lattice="10.86 0.0 0.0 0.0 10.86 0.0 0.0 0.0 10.86" Properties=species:S:1:pos:R:3:initial_magmoms:R:1 pbc="T T T"
Si       1.38892884       1.08758556       1.47765504       0.00000000
Si       1.38892884      -1.62741444      -1.23734496       0.00000000
Si      -1.32607116      -1.62741444       1.47765504       0.00000000
Si      -2.54117484       2.48773278       0.06656094       0.00000000
Si       2.74642884       2.44508556       0.12015504       0.00000000
Si       0.03142884       2.44508556       2.83515504       0.00000000
Si       2.74642884      -0.26991444      -2.59484496       0.00000000
Si      -0.12462936      -2.93035380      -2.47289802       0.00000000
Si      -2.68357116      -0.26991444       2.83515504       0.00000000
Si       2.74642884      -0.26991444       2.83515504       0.00000000
