10
Lattice="10.86 0.0 0.0 0.0 10.86 0.0 0.0 0.0 10.86" Properties=species:S:1:pos:R:3:initial_magmoms:R:1 pbc="T T T"
Si       1.42722120      -1.40184138      -1.18395720       0.00000000
Si      -1.28777880      -1.40184138       1.53104280       0.00000000
Si       1.42722120       1.31315862       1.53104280       0.00000000
Si      -0.08929092       2.56253646      -2.42018358       0.00000000
Si      -2.58699318      -0.08724924      -2.67498090       0.00000000
Si      -2.75085972       0.08349168       2.51495880       0.00000000
Si       0.06972120      -2.75934138      -2.54145720       0.00000000
Si       2.78472120      -0.04434138      -2.54145720       0.00000000
Si      -2.64527880      -2.75934138       0.17354280       0.00000000
Si       2.78472120       2.67065862       0.17354280       0.00000000
