10
Lattice="10.86 0.0 0.0 0.0 10.86 0.0 0.0 0.0 10.86" Properties=species:S:1:pos:R:3:initial_magmoms:R:1 pbc="T T T"
Si      -1.19848788       1.46562216      -1.47877362       0.00000000
Si       1.51651212       1.46562216       1.23622638       0.00000000
Si       1.51651212      -1.24937784      -1.47877362       0.00000000
Si       0.08929092      -2.56253646       2.42018358       0.00000000
Si      -2.49770226      -2.64978570      -0.25479732       0.00000000
Si      -2.55598788       0.10812216      -2.83627362       0.00000000
Si       0.15901212      -2.60687784      -2.83627362       0.00000000
Si       0.30410172       2.71841004       2.73576432       0.00000000
Si       2.87401212       0.10812216       2.59372638       0.00000000
Si       2.87401212      -2.60687784      -0.12127362       0.00000000
