10
Lattice="10.86 0.0 0.0 0.0 10.86 0.0 0.0 0.0 10.86" Properties=species:S:1:pos:R:3:initial_magmoms:R:1 pbc="T T T"
Si       0.97817106      -1.69162962      -0.84175860       0.00000000
Si      -1.42597230       1.59001260      -1.05729702       0.00000000
Si      -1.42597230      -1.12498740       1.65770298       0.00000000
Si       1.28902770       1.59001260       1.65770298       0.00000000
Si       2.30537166       0.00785178      -1.86959244       0.00000000
Si      -0.27468198      -2.63625414      -2.51880324       0.00000000
Si      -2.78347230       0.23251260      -2.41479702       0.00000000
Si      -2.78347230      -2.48248740       0.30020298       0.00000000
Si      -0.06847230       2.94751260      -2.41479702       0.00000000
Si       1.18455450      -3.42195342       1.25046384       0.00000000
