10
Lattice="16.28999089631971 0.0 0.0 0.0 16.28999089631971 0.0 0.0 0.0 34.5300574570662" Properties=species:S:1:pos:R:3:initial_magmoms:R:1 pbc="T T T"
Si      -0.15014167      -2.32217208      -0.00103590       0.00000000
Si      -2.23433218       0.66401298       0.18363095       0.00000000
Si       1.26395250       0.93045222       1.79549493       0.00000000
Si       0.71460483       0.32900913      -2.26099490       0.00000000
Si       2.90116266       0.97218720      -1.87574283       0.00000000
Si       1.59252180       3.13394580       1.02771867       0.00000000
Si      -0.36528859      -2.87437050      -2.32739623       0.00000000
Si      -3.37086919      -0.24470838      -1.67705677       0.00000000
Si      -0.04734688       0.54436293       3.75124395       0.00000000
Si      -2.38630159       3.01441630       0.13553055       0.00000000
