10
Lattice="16.28999089631971 0.0 0.0 0.0 16.28999089631971 0.0 0.0 0.0 34.5300574570662" Properties=species:S:1:pos:R:3:initial_magmoms:R:1 pbc="T T T"
Si       1.96361289      -0.90560020      -0.85717463       0.00000000
Si      -1.33876107       0.61405807      -1.88365022       0.00000000
Si      -0.78679071      -1.73112268       1.48676151       0.00000000
Si       0.89290377       1.59448801       1.65709838       0.00000000
Si       0.90505611      -3.40811302       1.00268437       0.00000000
Si      -0.03668508       2.40993283      -2.80070000       0.00000000
Si       3.01583286      -2.00463178       0.94947352       0.00000000
Si      -3.29822001       1.53931378      -1.04018403       0.00000000
Si       3.22975314       0.77700694      -1.86272499       0.00000000
Si       1.48538736      -2.49823507      -2.50139329       0.00000000
