10
Lattice="16.28999089631971 0.0 0.0 0.0 16.28999089631971 0.0 0.0 0.0 34.5300574570662" Properties=species:S:1:pos:R:3:initial_magmoms:R:1 pbc="T T T"
Si      -0.68973489      -1.86555916       1.36788969       0.00000000
Si      -1.38095217       2.03458353       0.26990231       0.00000000
Si       1.96542108       0.84991935       1.27609494       0.00000000
Si      -0.71221509      -0.79382377      -2.26900587       0.00000000
Si      -1.92178017      -0.42200452       2.77315677       0.00000000
Si       0.96747939       2.53178691      -2.09866900       0.00000000
Si      -3.23680997       0.87694609       1.28250372       0.00000000
Si      -2.44845216      -2.75557960       0.08812580       0.00000000
Si       0.80684370       2.28950574       2.77744196       0.00000000
Si       0.97963173      -2.47081411      -2.75308302       0.00000000
