10
Lattice="16.28999089631971 0.0 0.0 0.0 16.28999089631971 0.0 0.0 0.0 34.5300574570662" Properties=species:S:1:pos:R:3:initial_magmoms:R:1 pbc="T T T"
Si      -1.35589815      -1.35485559      -1.35837869       0.00000000
Si       1.36076886      -1.35309627       1.35813698       0.00000000
Si      -1.35589815       1.36130643       1.35537457       0.00000000
Si       1.35858600       1.35993807      -1.35824057       0.00000000
Si      -2.71362078      -2.71178653      -0.00051795       0.00000000
Si       0.00172674      -2.71223613      -2.71527259       0.00000000
Si       2.71585251      -2.71388305      -0.00031077       0.00000000
Si      -2.71353933       0.00254124      -2.71637755       0.00000000
Si       2.71386513       2.71741635      -0.00027624       0.00000000
Si      -2.71484253       2.71674846      -0.00069060       0.00000000
