10
Lattice="16.28999089631971 0.0 0.0 0.0 16.28999089631971 0.0 0.0 0.0 34.5300574570662" Properties=species:S:1:pos:R:3:initial_magmoms:R:1 pbc="T T T"
Si       1.64232522      -0.09982512      -1.66638697       0.00000000
Si       0.00939933      -1.85292234       1.43368879       0.00000000
Si       0.66715695       1.87387128       1.29287513       0.00000000
Si      -2.07998865       0.16439868      -1.17530022       0.00000000
Si      -1.39212711       2.89668780       0.40417455       0.00000000
Si       1.76334363      -3.12059385       0.41774487       0.00000000
Si       0.94275117      -0.93299346       3.37027361       0.00000000
Si       3.51640827      -1.29191103      -0.59405544       0.00000000
Si       0.84794337      -2.10116565      -3.15124933       0.00000000
Si      -3.89857167       0.11372049       0.33766962       0.00000000
