10
Lattice="16.28999089631971 0.0 0.0 0.0 16.28999089631971 0.0 0.0 0.0 34.5300574570662" Properties=species:S:1:pos:R:3:initial_magmoms:R:1 pbc="T T T"
Si      -1.35537687       1.35615879      -1.35844775       0.00000000
Si       1.36016613      -1.36096434      -1.35696296       0.00000000
Si       1.37407779       1.35661491       1.35748091       0.00000000
Si      -1.38922749      -1.34796492       1.36165905       0.00000000
Si       2.67933033      -0.05892093       2.68906426       0.00000000
Si      -0.05313798      -2.71648782       2.66983100       0.00000000
Si      -2.71008585       2.71019988      -0.00369472       0.00000000
Si       0.00322542       2.71210581      -2.71520353       0.00000000
Si      -2.71208952      -0.00221544      -2.71534165       0.00000000
Si       2.71907793       2.70927135      -0.00034530       0.00000000
