10
Lattice="16.28999089631971 0.0 0.0 0.0 16.28999089631971 0.0 0.0 0.0 34.5300574570662" Properties=species:S:1:pos:R:3:initial_magmoms:R:1 pbc="T T T"
Si       1.30525254      -1.41553584       1.33158335       0.00000000
Si       1.34500014       1.35265644      -1.35782621       0.00000000
Si      -1.27594683       1.29415905       1.49580839       0.00000000
Si      -1.37407779      -1.35661491      -1.35748091       0.00000000
Si      -0.35616456      -2.45685780       2.64293207       0.00000000
Si      -2.00533158      -0.51842925       3.03056672       0.00000000
Si       2.67300981      -2.70953199      -0.02914338       0.00000000
Si      -2.71085148       2.67724521       0.00908141       0.00000000
Si       2.69522937       2.71999017       0.00528310       0.00000000
Si       2.70102861      -0.00060273      -2.71679191       0.00000000
