10
Lattice="16.28999089631971 0.0 0.0 0.0 16.28999089631971 0.0 0.0 0.0 34.5300574570662" Properties=species:S:1:pos:R:3:initial_magmoms:R:1 pbc="T T T"
Si      -1.07105121      -1.61624493      -1.33058198       0.00000000
Si       1.66141710       1.04132196      -1.31134872       0.00000000
Si       1.60658496      -1.43257518       1.26942921       0.00000000
Si      -1.64916702       1.93842855       0.38763464       0.00000000
Si      -2.40714072      -0.24772203      -2.63875394       0.00000000
Si       0.35616456       2.45685780      -2.64293207       0.00000000
Si      -2.53641816      -2.78910864       0.16726369       0.00000000
Si       1.87584237       3.26484180       1.32198399       0.00000000
Si       0.34511994      -2.99512827      -2.62159249       0.00000000
Si      -3.68180064       1.13301837      -1.09664071       0.00000000
