10
Lattice="16.28999089631971 0.0 0.0 0.0 16.28999089631971 0.0 0.0 0.0 34.5300574570662" Properties=species:S:1:pos:R:3:initial_magmoms:R:1 pbc="T T T"
Si       2.13097635       0.13405367       0.90669076       0.00000000
Si      -0.77703300       1.41874823      -1.67719489       0.00000000
Si      -1.42441389       0.07507084       1.85008698       0.00000000
Si      -0.11577303      -2.08668777      -1.05337452       0.00000000
Si      -3.32121497       1.00553935       0.78562831       0.00000000
Si      -3.10242073       0.99542977      -1.61369408       0.00000000
Si       3.46315626      -0.79368531      -0.78393633       0.00000000
Si       1.00745505      -3.46185699       0.53559602       0.00000000
Si       1.02635145       1.37533212      -3.22127633       0.00000000
Si       2.19654360      -1.37067711       2.75266866       0.00000000
