10
Lattice="16.28999089631971 0.0 0.0 0.0 16.28999089631971 0.0 0.0 0.0 34.5300574570662" Properties=species:S:1:pos:R:3:initial_magmoms:R:1 pbc="T T T"
Si      -1.37023335      -1.33141428       1.39845084       0.00000000
Si       1.34762283       1.38479661       1.39693152       0.00000000
Si      -1.48908519       1.28801772      -1.36412795       0.00000000
Si       1.29973023      -1.61336160      -1.62217466       0.00000000
Si       2.67843438      -2.70013266       0.03310744       0.00000000
Si      -2.72113047      -2.67713118       0.02133613       0.00000000
Si       2.68535763       2.72189610       0.00636735       0.00000000
Si      -2.72113047       2.73157236       0.04113913       0.00000000
Si      -0.01187541      -2.69397504       2.75900493       0.00000000
Si       2.70264132       0.02182860       2.75769278       0.00000000
