10
Lattice="16.28999089631971 0.0 0.0 0.0 16.28999089631971 0.0 0.0 0.0 34.5300574570662" Properties=species:S:1:pos:R:3:initial_magmoms:R:1 pbc="T T T"
Si       1.17429723       1.39554801      -1.49922687       0.00000000
Si      -1.39043295      -1.30282533      -1.40989756       0.00000000
Si      -1.22344416       1.53226022       1.39570570       0.00000000
Si       1.40519169      -1.78900038       1.05921010       0.00000000
Si       2.28499830       2.53073688       0.30541853       0.00000000
Si      -1.53425736      -0.35443782       3.40915448       0.00000000
Si       0.37611981       3.39764507       1.56839062       0.00000000
Si      -2.11981770      -3.11541363       0.12486076       0.00000000
Si      -2.83825557       2.63477296      -0.16467394       0.00000000
Si       2.58074325       0.12300579      -2.90042286       0.00000000
