10
Lattice="16.28999089631971 0.0 0.0 0.0 16.28999089631971 0.0 0.0 0.0 34.5300574570662" Properties=species:S:1:pos:R:3:initial_magmoms:R:1 pbc="T T T"
Si       0.66099933       1.20337488       1.91013479       0.00000000
Si      -0.63011349      -2.08860769       0.92658008       0.00000000
Si       1.89382653       0.25505253      -1.43317084       0.00000000
Si      -2.18105181       1.72822239      -0.04882553       0.00000000
Si      -0.73503738       2.54317851      -1.79691066       0.00000000
Si       0.51596946       1.12401000      -3.16129759       0.00000000
Si      -1.28076867       2.65965201       1.91607396       0.00000000
Si       1.21023297      -2.22244959       2.45698761       0.00000000
Si       2.82180267       2.37234528      -0.53307532       0.00000000
Si      -0.98717400      -3.44900744      -1.08217261       0.00000000
