10
Lattice="16.28999089631971 0.0 0.0 0.0 16.28999089631971 0.0 0.0 0.0 34.5300574570662" Properties=species:S:1:pos:R:3:initial_magmoms:R:1 pbc="T T T"
Si      -0.67567662       2.20983624      -0.25293281       0.00000000
Si       2.30537709      -0.11658753      -0.42924338       0.00000000
Si      -0.38941245      -0.33171327       2.29980670       0.00000000
Si      -0.82924245      -1.30833298      -1.85827061       0.00000000
Si      -0.10096542      -2.70065834       2.28613279       0.00000000
Si       2.39376663       1.43154891      -2.23105732       0.00000000
Si       0.45199863       2.88782604      -2.22511815       0.00000000
Si      -3.02194161       2.31531399      -0.22568858       0.00000000
Si      -2.20134915       0.12771360      -3.17821732       0.00000000
Si      -0.22439475       3.46356351       1.71175949       0.00000000
