10
Lattice="16.28999089631971 0.0 0.0 0.0 16.28999089631971 0.0 0.0 0.0 34.5300574570662" Properties=species:S:1:pos:R:3:initial_magmoms:R:1 pbc="T T T"
Si       1.10920402      -1.93821582       0.83424665       0.00000000
Si       1.02076724       1.66554662      -1.40837824       0.00000000
Si      -2.15134278      -0.69161476      -0.86176713       0.00000000
Si       0.54354843      -3.51583716      -1.04864390       0.00000000
Si      -1.81725117      -3.07467138      -1.00969397       0.00000000
Si       0.22187469      -1.81833771       3.27469436       0.00000000
Si       2.98022618       0.74029090      -2.25184443       0.00000000
Si       3.53219654      -1.60488984       1.11856731       0.00000000
Si       2.19061730       3.45132157      -0.17907298       0.00000000
Si      -0.03178993       2.00543746      -3.59502988       0.00000000
