10
Lattice="16.28999089631971 0.0 0.0 0.0 16.28999089631971 0.0 0.0 0.0 34.5300574570662" Properties=species:S:1:pos:R:3:initial_magmoms:R:1 pbc="T T T"
Si      -1.77044607      -1.04565510      -1.16414701       0.00000000
Si       1.05063984       1.81780110      -1.08711041       0.00000000
Si      -1.55602080       1.17786474       1.46918571       0.00000000
Si       1.71890451      -1.90648386       0.28811896       0.00000000
Si       2.34564597       0.37765107      -2.48070977       0.00000000
Si      -0.40268880      -2.33965125      -2.52487374       0.00000000
Si      -0.35636004      -1.96677315       2.96989737       0.00000000
Si       2.38291749       3.02484123       0.57862050       0.00000000
Si       3.59412786      -1.07087202      -1.05965900       0.00000000
Si      -0.47923551       1.84945257       3.42396788       0.00000000
