10
Lattice="16.28999089631971 0.0 0.0 0.0 16.28999089631971 0.0 0.0 0.0 34.5300574570662" Properties=species:S:1:pos:R:3:initial_magmoms:R:1 pbc="T T T"
Si       2.12504679       0.52663941      -0.97581997       0.00000000
Si      -0.95930181       1.97200224      -1.04619227       0.00000000
Si       0.68585787      -0.50130846       2.33361165       0.00000000
Si      -0.83642634      -1.84422348      -1.50026277       0.00000000
Si      -2.30796720      -2.01953646       0.40262069       0.00000000
Si      -0.56720151      -2.52444501       1.98965755       0.00000000
Si       3.00557016       1.40730939       1.01342322       0.00000000
Si       1.33719723      -3.05339760      -1.40672080       0.00000000
Si      -2.90623374       2.19467025       0.41739957       0.00000000
Si       3.19779216      -1.64226006      -1.15948545       0.00000000
