10
Lattice="16.28999089631971 0.0 0.0 0.0 16.28999089631971 0.0 0.0 0.0 34.5300574570662" Properties=species:S:1:pos:R:3:initial_magmoms:R:1 pbc="T T T"
Si       0.52554798      -0.53535456      -2.20909619       0.00000000
Si       1.99067058       0.70161030       1.11815295       0.00000000
Si      -1.84194288       1.47553191      -0.39985829       0.00000000
Si      -0.70687197      -1.94372280       1.31721884       0.00000000
Si      -2.66703138       1.26490221       1.76362367       0.00000000
Si       2.81800710      -1.42324101       1.62905996       0.00000000
Si       2.33163657       0.88096320      -2.53868577       0.00000000
Si      -2.95078689       0.07982100      -2.05091391       0.00000000
Si       1.55942541      -2.65329891      -1.94342178       0.00000000
Si      -2.83566546      -1.14365574       2.14449042       0.00000000
