10
Lattice="16.28999089631971 0.0 0.0 0.0 16.28999089631971 0.0 0.0 0.0 34.5300574570662" Properties=species:S:1:pos:R:3:initial_magmoms:R:1 pbc="T T T"
Si      -0.54509598       1.92536397      -1.32391767       0.00000000
Si       1.84081887      -0.99305469       1.23890462       0.00000000
Si      -0.80011593      -1.74224808      -1.50599477       0.00000000
Si      -1.15960365       1.65903876       1.44804160       0.00000000
Si       0.95884569      -1.06256412      -3.02158890       0.00000000
Si       2.92429935      -0.00964368      -2.00074171       0.00000000
Si      -2.18134503       0.08952984       2.79445493       0.00000000
Si       0.13150917       1.06228719      -3.53249591       0.00000000
Si       0.52680231      -2.50512507       2.69310915       0.00000000
Si      -3.10125762      -1.61961696       1.42294445       0.00000000
