10
Lattice="16.28999089631971 0.0 0.0 0.0 16.28999089631971 0.0 0.0 0.0 34.5300574570662" Properties=species:S:1:pos:R:3:initial_magmoms:R:1 pbc="T T T"
Si       1.49319027      -1.11451293       1.44298083       0.00000000
Si       1.15030206       1.55720997      -1.39682935       0.00000000
Si      -1.23914772       1.58348574       1.41075391       0.00000000
Si      -0.67466664      -1.96102278      -1.61899586       0.00000000
Si       2.73466746      -2.55246381       0.05199539       0.00000000
Si       0.13986594      -2.47197492       2.80556528       0.00000000
Si      -0.58075479       2.75501434      -2.52071429       0.00000000
Si      -2.62477512      -2.75177196      -0.21778810       0.00000000
Si      -2.57688252       0.24638625       2.80131808       0.00000000
Si      -2.75843457       2.86508587      -0.05153614       0.00000000
