10
Lattice="16.28999089631971 0.0 0.0 0.0 16.28999089631971 0.0 0.0 0.0 34.5300574570662" Properties=species:S:1:pos:R:3:initial_magmoms:R:1 pbc="T T T"
Si      -1.35332433      -1.35746199       1.36258445       0.00000000
Si       1.36028016       1.35609363       1.35830272       0.00000000
Si       1.24147719      -1.43795088      -1.39098544       0.00000000
Si      -1.49319027       1.11451293      -1.44298083       0.00000000
Si      -0.41686110      -2.59727760      -2.63885684       0.00000000
Si      -2.73233799       2.69799867      -0.03222692       0.00000000
Si      -2.71505430      -0.00206883       2.71909852       0.00000000
Si       0.00079821       2.71321353       2.72134297       0.00000000
Si       0.00135207      -2.71692765       2.71982365       0.00000000
Si       2.71679733      -0.00115659       2.72213716       0.00000000
