10
Lattice="16.28999089631971 0.0 0.0 0.0 16.28999089631971 0.0 0.0 0.0 34.5300574570662" Properties=species:S:1:pos:R:3:initial_magmoms:R:1 pbc="T T T"
Si       1.33219620       1.34881104       1.37598903       0.00000000
Si       1.35397593      -1.36028016      -1.35782621       0.00000000
Si      -1.35987291       1.35544759      -1.35765356       0.00000000
Si      -1.36552554      -1.35158130       1.36276401       0.00000000
Si      -0.22276575       2.47005989       2.86237071       0.00000000
Si       0.06558354      -2.62365111       2.76610086       0.00000000
Si       2.71285515      -0.00043232      -2.71509994       0.00000000
Si       2.71278999       2.71584341       0.00448891       0.00000000
Si      -0.00193851       2.71397006      -2.71496181       0.00000000
Si       2.71067229      -2.71841004       0.00013812       0.00000000
