10
Lattice="16.28999089631971 0.0 0.0 0.0 16.28999089631971 0.0 0.0 0.0 34.5300574570662" Properties=species:S:1:pos:R:3:initial_magmoms:R:1 pbc="T T T"
Si       1.07678529       0.67158783       1.95478218       0.00000000
Si       1.55602080      -1.17786474      -1.46918571       0.00000000
Si      -1.40519169       1.78900038      -1.05921010       0.00000000
Si      -0.21442527      -2.22351984      -2.63333271       0.00000000
Si       2.24283978       2.76851808       0.68863332       0.00000000
Si      -0.87014664       0.89425584       3.41837401       0.00000000
Si       1.19966076      -3.14463789       1.50071167       0.00000000
Si       2.60666064       0.63993636      -2.55629611       0.00000000
Si      -2.79562464       0.48617505      -2.46910767       0.00000000
Si       2.03608710      -1.30041441       3.00097444       0.00000000
