10
Lattice="16.28999089631971 0.0 0.0 0.0 16.28999089631971 0.0 0.0 0.0 34.5300574570662" Properties=species:S:1:pos:R:3:initial_magmoms:R:1 pbc="T T T"
Si      -2.09657187      -0.82904697       0.71000744       0.00000000
Si       0.00503361       2.23651926      -0.80013094       0.00000000
Si       0.81050895      -1.54608390      -1.69135222       0.00000000
Si       1.41027417      -0.04184901       1.97947118       0.00000000
Si       2.27164050       2.19367656      -1.73700098       0.00000000
Si      -0.51515496       3.54433212       1.17219252       0.00000000
Si      -2.93865084       0.74371995       2.24963450       0.00000000
Si      -1.77569145      -3.03358896       1.57899135       0.00000000
Si       3.67495884       0.43969968       1.39584382       0.00000000
Si       1.84161708      -2.21081364       2.75474046       0.00000000
