10
Lattice="16.28999089631971 0.0 0.0 0.0 16.28999089631971 0.0 0.0 0.0 34.5300574570662" Properties=species:S:1:pos:R:3:initial_magmoms:R:1 pbc="T T T"
Si       1.36485506       1.34498385       1.39888247       0.00000000
Si      -1.35382932      -1.36526653       1.39594741       0.00000000
Si      -1.30763088       1.41568245      -1.52559404       0.00000000
Si       1.40892603      -1.43121171      -1.44935854       0.00000000
Si      -2.71114470       2.70246213       0.01051096       0.00000000
Si      -2.70114264      -2.72149604       0.00791429       0.00000000
Si       2.72185442       2.70532917       0.02194041       0.00000000
Si       2.72395583      -2.73016232       0.04129452       0.00000000
Si       0.00447975       2.70676269       2.75771005       0.00000000
Si      -2.71088406      -0.00737937       2.75798629       0.00000000
