10
Lattice="16.28999089631971 0.0 0.0 0.0 16.28999089631971 0.0 0.0 0.0 34.5300574570662" Properties=species:S:1:pos:R:3:initial_magmoms:R:1 pbc="T T T"
Si      -1.03773816       1.75128903       1.21621836       0.00000000
Si      -1.91604609      -1.42418583      -0.40414002       0.00000000
Si       1.64079396      -1.59501906       0.85969532       0.00000000
Si       2.11064643      -0.07845264      -1.42146514       0.00000000
Si      -0.66503925      -2.84335434      -1.76852694       0.00000000
Si       0.90847701      -1.47514095      -2.95449696       0.00000000
Si       0.82285677       3.16242657       1.46345371       0.00000000
Si      -1.13609718       3.02075244      -1.55910203       0.00000000
Si       0.71281782      -3.71231181      -0.04040019       0.00000000
Si      -3.34809999      -0.10858914      -1.77035704       0.00000000
