10
Lattice="16.28999089631971 0.0 0.0 0.0 16.28999089631971 0.0 0.0 0.0 34.5300574570662" Properties=species:S:1:pos:R:3:initial_magmoms:R:1 pbc="T T T"
Si      -1.20216942      -1.39668831      -1.53303182       0.00000000
Si       1.33356456       1.35511623      -1.48189277       0.00000000
Si       1.75662630      -0.59587191       1.59746494       0.00000000
Si      -2.11064643       0.07845264       1.42146514       0.00000000
Si      -0.46985247      -1.51656642       2.28116046       0.00000000
Si       2.25076879       1.95607062       1.82626123       0.00000000
Si      -2.61226440      -0.04680117      -2.91178325       0.00000000
Si       2.87262162      -2.65025268       0.18887952       0.00000000
Si      -2.77568568      -2.76490170      -0.34706180       0.00000000
Si       2.15362175       3.28890213      -0.21329228       0.00000000
