10
Lattice="16.28999089631971 0.0 0.0 0.0 16.28999089631971 0.0 0.0 0.0 34.5300574570662" Properties=species:S:1:pos:R:3:initial_magmoms:R:1 pbc="T T T"
Si       1.97765487      -0.55623834       1.13648842       0.00000000
Si      -1.48028859      -1.35304740       1.23569333       0.00000000
Si       0.20696445       1.92784005       1.37937298       0.00000000
Si       0.10301796      -0.14245605      -2.40754054       0.00000000
Si       1.50617340       0.40527891       3.37503876       0.00000000
Si       1.12140360       1.90175976      -3.13540003       0.00000000
Si      -2.14795053       0.21877470      -3.25957019       0.00000000
Si       1.25457435       3.73402638       0.31304968       0.00000000
Si      -2.13486966      -0.48951450       3.30946615       0.00000000
Si      -0.46073007      -3.41133777       2.03233673       0.00000000
