10
Lattice="16.28999089631971 0.0 0.0 0.0 16.28999089631971 0.0 0.0 0.0 34.5300574570662" Properties=species:S:1:pos:R:3:initial_magmoms:R:1 pbc="T T T"
Si       1.35537917      -1.35780408      -1.36452504       0.00000000
Si      -1.36000323       1.36132272      -1.36390350       0.00000000
Si      -1.38945555      -1.35760860       1.35033318       0.00000000
Si       1.37959751       1.36728486       1.37163824       0.00000000
Si      -0.06506226       2.69765658       2.71292454       0.00000000
Si       2.70898532      -2.70979263      -0.00576652       0.00000000
Si      -2.71555929      -2.71292031      -0.01167117       0.00000000
Si       2.71548503       2.71456560      -0.01011731       0.00000000
Si      -2.71891503       2.71414206      -0.00628447       0.00000000
Si       2.71348136       0.00215028      -2.72176424       0.00000000
