10
Lattice="16.28999089631971 0.0 0.0 0.0 16.28999089631971 0.0 0.0 0.0 34.5300574570662" Properties=species:S:1:pos:R:3:initial_magmoms:R:1 pbc="T T T"
Si      -1.86059493      -1.41113754      -0.24723535       0.00000000
Si       1.00323594      -0.66676599       2.08958759       0.00000000
Si      -1.07274537       2.16889947       0.18366548       0.00000000
Si       3.27100172      -0.42500610       1.33793688       0.00000000
Si       0.18823095       3.15563364      -1.67950840       0.00000000
Si      -0.82285677      -3.16242657      -1.46345371       0.00000000
Si      -1.95895395      -0.14167413      -3.02255574       0.00000000
Si      -0.04173498       1.05150321       3.45072869       0.00000000
Si      -0.19222200       3.04956945       2.17290867       0.00000000
Si      -3.19779216       1.64226006       1.15948545       0.00000000
