10
Lattice="16.28999089631971 0.0 0.0 0.0 16.28999089631971 0.0 0.0 0.0 34.5300574570662" Properties=species:S:1:pos:R:3:initial_magmoms:R:1 pbc="T T T"
Si       0.88052337       0.88066998       1.98924319       0.00000000
Si      -2.12504679      -0.52663941       0.97581997       0.00000000
Si       1.07274537      -2.16889947      -0.18366548       0.00000000
Si       1.26097632       0.98673417      -1.86317388       0.00000000
Si      -3.08434860       1.44536283      -0.07037230       0.00000000
Si       1.03101039      -1.11739626       3.26706321       0.00000000
Si       2.98440945       1.58369751       1.33444935       0.00000000
Si      -0.78784956      -3.58003701      -0.43090083       0.00000000
Si      -1.43918892      -1.02794787       3.30943162       0.00000000
Si       2.81650842       2.38249395      -0.79681605       0.00000000
