10
Lattice="16.28999089631971 0.0 0.0 0.0 16.28999089631971 0.0 0.0 0.0 34.5300574570662" Properties=species:S:1:pos:R:3:initial_magmoms:R:1 pbc="T T T"
Si       0.16790103      -0.79879644       2.13126540       0.00000000
Si      -1.55553210      -1.39575978      -1.06635783       0.00000000
Si      -0.49829481       2.29479089       0.14727078       0.00000000
Si       2.38615010       0.02119329      -0.28611622       0.00000000
Si       1.32805758       2.48461337      -1.34684564       0.00000000
Si       2.06368303       0.53980173      -2.53554354       0.00000000
Si       1.13267174       1.09955871       3.15905313       0.00000000
Si       2.90399291      -2.22485562      -0.14547521       0.00000000
Si       1.78933988      -2.58159033       1.90633648       0.00000000
Si      -1.93598505      -1.50182397       2.78605924       0.00000000
