10
Lattice="16.28999089631971 0.0 0.0 0.0 16.28999089631971 0.0 0.0 0.0 34.5300574570662" Properties=species:S:1:pos:R:3:initial_magmoms:R:1 pbc="T T T"
Si       0.27451908       1.79835084      -1.44463482       0.00000000
Si       0.78389109      -1.96123455      -1.04225584       0.00000000
Si       1.13653701       0.90872136       1.86068772       0.00000000
Si      -2.26468467      -0.48154869       0.58362736       0.00000000
Si      -1.83334176      -2.65051332       1.35889664       0.00000000
Si      -2.24318187       0.99269631       2.51026752       0.00000000
Si      -0.40560471       3.53204897      -0.06198149       0.00000000
Si      -0.24120603       0.27943866       3.61989154       0.00000000
Si       3.37086919       0.24470838       1.67705677       0.00000000
Si      -0.39425058      -2.07523197      -3.12956445       0.00000000
