10
Lattice="16.28999089631971 0.0 0.0 0.0 16.28999089631971 0.0 0.0 0.0 34.5300574570662" Properties=species:S:1:pos:R:3:initial_magmoms:R:1 pbc="T T T"
Si      -1.49955314       0.82344321       1.61552417       0.00000000
Si       2.05328934       0.64257534       0.95807151       0.00000000
Si      -0.36830061      -2.32039647       0.21650358       0.00000000
Si      -0.25694217       0.66358944      -2.27135392       0.00000000
Si       1.84964805      -0.35258076       3.15981279       0.00000000
Si      -0.23545566       0.65164887       3.62980167       0.00000000
Si      -2.16195830      -2.51243928       1.82021847       0.00000000
Si       1.94577534       3.07478637       1.13030753       0.00000000
Si      -0.57394557      -1.37152026      -3.51858029       0.00000000
Si      -0.65122533      -3.31460775      -2.02774423       0.00000000
