10
Lattice="16.28999089631971 0.0 0.0 0.0 16.28999089631971 0.0 0.0 0.0 34.5300574570662" Properties=species:S:1:pos:R:3:initial_magmoms:R:1 pbc="T T T"
Si      -2.04946512      -1.10288187      -0.42485806       0.00000000
Si       0.47759022       1.54579068      -1.74221502       0.00000000
Si       1.74565595      -1.63624905      -0.43984412       0.00000000
Si      -2.34077919       0.70016049       1.42888911       0.00000000
Si      -0.90145995      -0.61959015       2.98937233       0.00000000
Si       0.57580589      -3.42202401      -1.66914938       0.00000000
Si      -2.60645280       2.99571471      -0.19022619       0.00000000
Si      -0.87195876       3.47108949      -1.74338905       0.00000000
Si      -0.07704030       0.73285452      -3.91467480       0.00000000
Si       2.89167374      -2.12392278       1.77498407       0.00000000
