10
Lattice="16.28999089631971 0.0 0.0 0.0 16.28999089631971 0.0 0.0 0.0 34.5300574570662" Properties=species:S:1:pos:R:3:initial_magmoms:R:1 pbc="T T T"
Si       1.34892321       1.35433431       1.38113056       0.00000000
Si      -1.36817290      -1.35738054       1.38002559       0.00000000
Si      -1.20155878       1.37841093      -1.54221682       0.00000000
Si       1.41933185      -1.32221043      -1.42737669       0.00000000
Si      -0.06767704      -2.45184048      -2.88504113       0.00000000
Si      -2.71024084       2.70593190      -0.00286945       0.00000000
Si       2.70935161      -2.71740006       0.00619124       0.00000000
Si       2.71145302       2.72839581       0.00574235       0.00000000
Si      -2.72364751      -2.72026710      -0.00523821       0.00000000
Si       2.70871630       0.00057015       2.74299678       0.00000000
