10
Lattice="16.28999089631971 0.0 0.0 0.0 16.28999089631971 0.0 0.0 0.0 34.5300574570662" Properties=species:S:1:pos:R:3:initial_magmoms:R:1 pbc="T T T"
Si       1.35360615      -1.35198855       1.35875852       0.00000000
Si      -1.35668237      -1.35567009      -1.35748091       0.00000000
Si       1.35810219       1.35995436      -1.35723920       0.00000000
Si      -1.35537917       1.35780408       1.36452504       0.00000000
Si       2.68096422       0.01420488       2.71976150       0.00000000
Si      -2.71355792      -2.71194291      -0.00027624       0.00000000
Si       2.71445646      -2.71355562       0.00006906       0.00000000
Si       0.00071676      -2.71259451      -2.71544524       0.00000000
Si       2.71545015       0.00219915      -2.71458198       0.00000000
Si      -2.71481225       0.00213399      -2.71551430       0.00000000
