10
Lattice="16.28999089631971 0.0 0.0 0.0 16.28999089631971 0.0 0.0 0.0 34.5300574570662" Properties=species:S:1:pos:R:3:initial_magmoms:R:1 pbc="T T T"
Si       1.27465992      -1.38074040      -1.54211323       0.00000000
Si      -1.38208595       1.33014366      -1.52571144       0.00000000
Si      -2.05705722      -0.76282812       1.16190255       0.00000000
Si       2.03263362       0.80541018       1.48427535       0.00000000
Si       2.61074943      -2.74926330      -0.23394127       0.00000000
Si       2.76201837       2.61799848      -0.05048297       0.00000000
Si      -2.82674573       2.66051538      -0.18442514       0.00000000
Si      -0.85071267       1.51568676       3.50148790       0.00000000
Si       2.66388741      -0.03277548      -2.90377227       0.00000000
Si      -2.87711441      -2.69661402      -0.10669794       0.00000000
