10
Lattice="16.28999089631971 0.0 0.0 0.0 16.28999089631971 0.0 0.0 0.0 34.5300574570662" Properties=species:S:1:pos:R:3:initial_magmoms:R:1 pbc="T T T"
Si      -2.16933767       0.92981691      -0.26995614       0.00000000
Si       0.08236224      -1.70898390      -1.68361748       0.00000000
Si       1.78033410       1.53358947      -0.54170784       0.00000000
Si      -0.42782427      -0.66298671       2.37815545       0.00000000
Si      -3.30088247      -0.95630445      -1.22609397       0.00000000
Si      -1.95133349      -2.88160326      -1.22491994       0.00000000
Si       3.80412225       0.20354355      -0.55921459       0.00000000
Si      -0.41428728      -0.64021329      -3.80193410       0.00000000
Si       1.20547629       2.81321784      -2.55822980       0.00000000
Si       2.24867160      -0.39537459       3.27517778       0.00000000
