10
Lattice="10.86 0.0 0.0 0.0 10.86 0.0 0.0 0.0 10.86" Properties=species:S:1:pos:R:3:initial_magmoms:R:1 pbc="T T T"
Si       1.30250496      -1.29368664      -1.28265288       0.00000000
Si      -1.41249504       1.42131336      -1.28265288       0.00000000
Si      -1.41249504      -1.29368664       1.43234712       0.00000000
Si       1.52806716       1.19522988       1.59320544       0.00000000
Si       2.58838326      -2.69790636      -0.01017582       0.00000000
Si      -0.05499504      -2.65118664      -2.64015288       0.00000000
Si       2.66000496       0.06381336      -2.64015288       0.00000000
Si      -0.05635254       2.65686642       2.69806926       0.00000000
Si      -2.76999504       0.06381336      -2.64015288       0.00000000
Si      -0.05499504       2.77881336      -2.64015288       0.00000000
