10
Lattice="10.86 0.0 0.0 0.0 10.86 0.0 0.0 0.0 10.86" Properties=species:S:1:pos:R:3:initial_magmoms:R:1 pbc="T T T"
Si      -1.34059098       1.31826282      -1.35187452       0.00000000
Si       1.37440902       1.31826282       1.36312548       0.00000000
Si      -1.34059098      -1.39673718       1.36312548       0.00000000
Si       0.12658416      -2.68391868      -2.50113402       0.00000000
Si       2.67160344       2.60605248      -0.08573970       0.00000000
Si       0.01555152       2.55381588      -2.80115238       0.00000000
Si      -2.69809098       2.67576282       0.00562548       0.00000000
Si       0.01690902       2.67576282       2.72062548       0.00000000
Si      -2.69809098      -0.03923718      -2.70937452       0.00000000
Si      -2.69809098      -0.03923718       2.72062548       0.00000000
