10
Lattice="10.86 0.0 0.0 0.0 10.86 0.0 0.0 0.0 10.86" Properties=species:S:1:pos:R:3:initial_magmoms:R:1 pbc="T T T"
Si      -1.29719442       1.42721034      -1.26613482       0.00000000
Si      -1.29719442      -1.28778966       1.44886518       0.00000000
Si       1.41780558       1.42721034       1.44886518       0.00000000
Si       0.42560340      -2.63082414      -2.35755396       0.00000000
Si      -2.67160344      -2.60605248       0.08573970       0.00000000
Si      -2.65605192      -0.05223660      -2.71541268       0.00000000
Si       2.75891784       0.01194600      -2.64153210       0.00000000
Si       0.06030558       2.78471034      -2.62363482       0.00000000
Si      -2.65469442       2.78471034       0.09136518       0.00000000
Si       0.06030558      -2.64528966       2.80636518       0.00000000
