10
Lattice="16.28999089631971 0.0 0.0 0.0 16.28999089631971 0.0 0.0 0.0 34.46413024517268" Properties=species:S:1:pos:R:3:initial_magmoms:R:1 pbc="T T T"
Si       2.10649248       0.38718072      -0.74597652       0.00000000
Si      -2.03863553       0.78287103      -0.65602509       0.00000000
Si      -0.93863699       1.03699438       1.86917628       0.00000000
Si       1.12887582      -2.03799303      -0.36852515       0.00000000
Si       1.85826546       0.38415078      -3.06313914       0.00000000
Si      -1.82228804      -0.81319680       3.11293092       0.00000000
Si      -3.07655288      -0.93470391      -1.88267310       0.00000000
Si      -1.66420988       2.31646148      -2.45326155       0.00000000
Si       0.96555554       1.92831313       3.16776683       0.00000000
Si       0.35757853      -2.81170287      -2.59559849       0.00000000
