10
Lattice="16.28999089631971 0.0 0.0 0.0 16.28999089631971 0.0 0.0 0.0 34.46413024517268" Properties=species:S:1:pos:R:3:initial_magmoms:R:1 pbc="T T T"
Si      -1.35684297       1.31862663      -1.39606343       0.00000000
Si       1.34193762       1.36728486       1.36696190       0.00000000
Si      -1.37174832      -1.34782646       1.36644494       0.00000000
Si       1.40317173      -1.35612458      -1.44522998       0.00000000
Si       2.69545743      -2.71388116      -0.00143026       0.00000000
Si       2.70073539       2.72217303      -0.02848117       0.00000000
Si       2.69737965       0.00886176       2.72705510       0.00000000
Si      -0.01684386      -2.70607312       2.72674492       0.00000000
Si      -2.73217509      -2.71815659      -0.01403036       0.00000000
Si      -0.01715337       2.72536587       2.72753760       0.00000000
