10
Lattice="16.28999089631971 0.0 0.0 0.0 16.28999089631971 0.0 0.0 0.0 34.46413024517268" Properties=species:S:1:pos:R:3:initial_magmoms:R:1 pbc="T T T"
Si      -1.28402667       1.27584909      -1.61764379       0.00000000
Si      -1.92275757      -0.81265923       1.43439790       0.00000000
Si       1.40457267      -1.43607590      -1.58955550       0.00000000
Si       1.62513927       1.29593466       1.51797346       0.00000000
Si      -2.70959715       2.58264918      -0.28560441       0.00000000
Si      -2.74357809      -2.63271812       0.01864510       0.00000000
Si       0.05725935       2.62868472      -2.98752480       0.00000000
Si       2.64209139      -2.98195685      -0.19144835       0.00000000
Si      -2.65851171      -0.08552250      -2.98824855       0.00000000
Si       2.87075412       2.80109808      -0.04545821       0.00000000
