10
Lattice="16.28999089631971 0.0 0.0 0.0 16.28999089631971 0.0 0.0 0.0 34.46413024517268" Properties=species:S:1:pos:R:3:initial_magmoms:R:1 pbc="T T T"
Si      -1.35726651      -1.35576783      -1.35788749       0.00000000
Si       1.35648459       1.35780408      -1.35702589       0.00000000
Si       1.35674523      -1.35684297       1.35792195       0.00000000
Si      -1.35785295       1.35739683       1.35740499       0.00000000
Si       2.71362078      -0.00006516       2.71439642       0.00000000
Si       2.71461447      -2.71471384      -0.00034464       0.00000000
Si      -2.71531983       0.00136836       2.71425856       0.00000000
Si      -2.71519765      -2.71447275      -0.00010339       0.00000000
Si       0.00104256       2.71601541       2.71405177       0.00000000
Si       0.00073305       2.71414206      -2.71598177       0.00000000
