10
Lattice="16.28999089631971 0.0 0.0 0.0 16.28999089631971 0.0 0.0 0.0 34.46413024517268" Properties=species:S:1:pos:R:3:initial_magmoms:R:1 pbc="T T T"
Si      -0.49860432       1.60844202       1.71534965       0.00000000
Si       1.24561485       1.50516342      -1.56343168       0.00000000
Si      -1.62513927      -1.29593466      -1.51797346       0.00000000
Si       0.80982477      -1.59827706       1.92468489       0.00000000
Si      -2.49624702       0.75478086       2.65270559       0.00000000
Si       2.10602007       3.31617159      -0.22026038       0.00000000
Si      -1.41226155       3.63472254       0.74652794       0.00000000
Si       2.50613505      -0.01659951      -3.11045842       0.00000000
Si      -1.23049773      -2.84416884       2.60645470       0.00000000
Si      -0.20491191       2.68252317      -3.12203838       0.00000000
