10
Lattice="16.28999089631971 0.0 0.0 0.0 16.28999089631971 0.0 0.0 0.0 34.46413024517268" Properties=species:S:1:pos:R:3:initial_magmoms:R:1 pbc="T T T"
Si      -1.99764270      -0.85366116       0.93735594       0.00000000
Si       0.49860432      -1.60844202      -1.71534965       0.00000000
Si      -0.91365723       2.02628052      -0.96882171       0.00000000
Si       1.55844801       0.84766644       1.73433940       0.00000000
Si       1.30842909      -3.20671908       0.20933524       0.00000000
Si      -0.15592788       1.84098177       3.05479882       0.00000000
Si       2.60462439       1.70772957      -1.93561003       0.00000000
Si      -1.76650389       0.08322561       3.23346097       0.00000000
Si       1.74421917      -0.10327860      -3.27878133       0.00000000
Si      -3.68437446       0.45711369      -0.17724912       0.00000000
