10
Lattice="16.28999089631971 0.0 0.0 0.0 16.28999089631971 0.0 0.0 0.0 34.46413024517268" Properties=species:S:1:pos:R:3:initial_magmoms:R:1 pbc="T T T"
Si      -1.71437589       0.99331533       1.32045942       0.00000000
Si       0.97023240      -1.39468464       1.73078959       0.00000000
Si       1.78997778       1.03404033      -1.29605881       0.00000000
Si      -1.55844801      -0.84766644      -1.73433940       0.00000000
Si      -3.32495190      -0.76444083       1.49912158       0.00000000
Si       0.73386450      -3.63244194       0.87869796       0.00000000
Si      -0.91083906       1.29805236       3.47867339       0.00000000
Si       3.76515657      -0.22755501      -0.72130019       0.00000000
Si      -2.47210524       1.17861408      -2.70316110       0.00000000
Si       3.36456918      -0.96537798       1.64821349       0.00000000
