10
Lattice="16.28999089631971 0.0 0.0 0.0 16.28999089631971 0.0 0.0 0.0 34.46413024517268" Properties=species:S:1:pos:R:3:initial_magmoms:R:1 pbc="T T T"
Si      -0.62745822      -2.16906237      -0.69169548       0.00000000
Si      -1.95131394       0.13603779       1.34327469       0.00000000
Si       1.88594217      -0.18860562       1.49698480       0.00000000
Si      -0.00255753       1.59917301      -1.83008080       0.00000000
Si      -1.40172192      -1.26324063       3.16380892       0.00000000
Si      -2.34585774      -1.70049681      -2.28324990       0.00000000
Si       3.37694958       1.53699408       0.60429440       0.00000000
Si       0.81805122      -0.31227930       3.66185035       0.00000000
Si      -2.12947767       2.52745866      -1.97813879       0.00000000
Si      -3.37529777       0.43735392      -1.85637695       0.00000000
