10
Lattice="16.28999089631971 0.0 0.0 0.0 16.28999089631971 0.0 0.0 0.0 34.46413024517268" Properties=species:S:1:pos:R:3:initial_magmoms:R:1 pbc="T T T"
Si       1.38165264      -1.32414894       1.41158264       0.00000000
Si      -1.34428338       1.39686750       1.40157769       0.00000000
Si      -1.14186384      -1.53974709      -1.45108686       0.00000000
Si       1.41125157       1.23137739      -1.53903937       0.00000000
Si      -1.95219360       0.01764207      -3.06769672       0.00000000
Si       2.62236420       2.58564654       0.00222983       0.00000000
Si      -2.71375110      -2.67512751       0.06869739       0.00000000
Si       2.68149690      -2.76820857      -0.02451435       0.00000000
Si      -2.71008585       2.74590756      -0.16021694       0.00000000
Si       0.02767671      -2.68718211       2.78191858       0.00000000
