10
Lattice="16.28999089631971 0.0 0.0 0.0 16.28999089631971 0.0 0.0 0.0 34.46413024517268" Properties=species:S:1:pos:R:3:initial_magmoms:R:1 pbc="T T T"
Si      -1.82081475      -1.49216400       0.12155506       0.00000000
Si      -0.75784338       2.09593656      -0.76779232       0.00000000
Si       1.14199416       0.31833918       2.06743540       0.00000000
Si       0.34593444      -0.44030241      -2.36127674       0.00000000
Si       2.53847070       0.29812329      -2.25995214       0.00000000
Si      -1.09921662       1.35501849      -3.00541169       0.00000000
Si      -0.89143767      -3.58979472       0.66491684       0.00000000
Si       1.78012233      -1.79756892       2.80775980       0.00000000
Si      -2.84032440       2.57593770       0.21498736       0.00000000
Si      -0.31516263       1.15618275       3.67322352       0.00000000
