10
Lattice="16.28999089631971 0.0 0.0 0.0 16.28999089631971 0.0 0.0 0.0 34.46413024517268" Properties=species:S:1:pos:R:3:initial_magmoms:R:1 pbc="T T T"
Si       0.86990229      -0.19280844       2.14742669       0.00000000
Si      -2.25165267      -0.67979799       0.04452768       0.00000000
Si      -0.54941283       2.18131245      -0.71957698       0.00000000
Si       1.65253905      -0.96084936      -1.44563322       0.00000000
Si      -1.75700682       1.38556224      -2.58774067       0.00000000
Si      -3.38191803       1.13637411       1.02672148       0.00000000
Si       1.17476964       1.96885827       3.01468255       0.00000000
Si       1.42527726       3.48039108      -0.59554050       0.00000000
Si       3.12735420      -0.90639189       1.98789214       0.00000000
Si       3.52056222       0.52663941      -1.46100423       0.00000000
