10
Lattice="16.28999089631971 0.0 0.0 0.0 16.28999089631971 0.0 0.0 0.0 34.46413024517268" Properties=species:S:1:pos:R:3:initial_magmoms:R:1 pbc="T T T"
Si      -0.63050445       0.04606812      -2.29355469       0.00000000
Si       1.20474324      -1.45166706       1.45821263       0.00000000
Si      -1.43161407       1.16408340       1.56687809       0.00000000
Si       2.08248102      -1.59707160      -0.82165979       0.00000000
Si      -2.24194383       2.72147256      -0.04973177       0.00000000
Si      -2.72347623       1.19272122      -1.93126755       0.00000000
Si       2.39174667      -0.06437808       2.99345061       0.00000000
Si      -0.28732302      -2.76612345       2.84771895       0.00000000
Si       3.63734523       0.14535567      -1.73127209       0.00000000
Si      -0.28975023       2.70383049       3.01796495       0.00000000
