10
Lattice="16.28999089631971 0.0 0.0 0.0 16.28999089631971 0.0 0.0 0.0 34.46413024517268" Properties=species:S:1:pos:R:3:initial_magmoms:R:1 pbc="T T T"
Si      -2.08248102       0.48000114       0.98277969       0.00000000
Si       0.75784338      -2.09593656       0.76779232       0.00000000
Si      -0.34137324      -0.74091807      -2.23761937       0.00000000
Si       1.80314010       1.60723656       0.06620563       0.00000000
Si       1.10377782      -2.53623897      -1.59348442       0.00000000
Si      -1.29355632       1.90057059       2.67166087       0.00000000
Si       3.74088447       0.25458012      -0.35839269       0.00000000
Si      -0.08195499       1.39624848      -3.50407347       0.00000000
Si      -3.43525149       1.26146502      -0.97068277       0.00000000
Si      -1.06297137      -3.58810056       0.88934738       0.00000000
