10
Lattice="16.28999089631971 0.0 0.0 0.0 16.28999089631971 0.0 0.0 0.0 34.46413024517268" Properties=species:S:1:pos:R:3:initial_magmoms:R:1 pbc="T T T"
Si      -1.94603598       0.52245288      -1.25911324       0.00000000
Si      -0.20979891      -2.31787152       0.51024173       0.00000000
Si      -0.04836501       1.40017437       1.94653516       0.00000000
Si       1.72072899       0.83997756      -1.61898789       0.00000000
Si       2.73377151      -1.30333032      -0.67608322       0.00000000
Si       0.67751739       3.02839475      -1.42085349       0.00000000
Si      -2.35519191       0.99119763       2.31960958       0.00000000
Si       1.24735788      -3.15571509      -1.09554638       0.00000000
Si       0.59324922       3.52612430       0.89748092       0.00000000
Si      -1.38088701       2.49657512      -2.35641729       0.00000000
