10
Lattice="16.28999089631971 0.0 0.0 0.0 16.28999089631971 0.0 0.0 0.0 34.46413024517268" Properties=species:S:1:pos:R:3:initial_magmoms:R:1 pbc="T T T"
Si      -1.35037584      -1.34710969       1.37041866       0.00000000
Si       1.36195803       1.36505313       1.36569707       0.00000000
Si      -1.30316742       1.26814392      -1.51354482       0.00000000
Si       1.37202525      -1.38259909      -1.37402705       0.00000000
Si       2.31145326       0.50253021      -2.47391316       0.00000000
Si       0.60289290       2.15603037      -2.71180613       0.00000000
Si      -2.42225784      -0.33700752      -2.91938370       0.00000000
Si      -2.71446786      -2.71371826       0.00009650       0.00000000
Si       2.72205900      -2.70619262       0.01671167       0.00000000
Si      -2.70918990       2.72233593      -0.02695441       0.00000000
