10
Lattice="16.28999089631971 0.0 0.0 0.0 16.28999089631971 0.0 0.0 0.0 34.46413024517268" Properties=species:S:1:pos:R:3:initial_magmoms:R:1 pbc="T T T"
Si      -0.51803829       0.21964947       2.25012986       0.00000000
Si      -1.95926346      -0.76187257      -1.23629797       0.00000000
Si       1.85600115      -1.69548505       0.08271396       0.00000000
Si       0.88829370       1.98746308      -1.28730491       0.00000000
Si       1.61782506       1.13104891       2.57740142       0.00000000
Si      -0.48338946      -1.96213606      -2.65928824       0.00000000
Si       2.26527111       0.76941417      -2.67938084       0.00000000
Si       0.88519860      -3.39637282      -1.23974439       0.00000000
Si      -2.16639081       1.91774188       2.39780874       0.00000000
Si       3.53361051      -0.67579621      -1.30057361       0.00000000
