10
Lattice="16.28999089631971 0.0 0.0 0.0 16.28999089631971 0.0 0.0 0.0 34.46413024517268" Properties=species:S:1:pos:R:3:initial_magmoms:R:1 pbc="T T T"
Si      -0.03412755       1.08415652      -2.09845314       0.00000000
Si      -1.38407985      -1.93117854      -0.12775860       0.00000000
Si      -0.94726350       1.72427206       1.36364300       0.00000000
Si       2.29426731      -0.37971990       0.65888561       0.00000000
Si       0.55781847       3.29093024      -1.37274154       0.00000000
Si       0.60077520       3.48654055       0.98719110       0.00000000
Si      -2.91177234      -1.24092237      -1.89373609       0.00000000
Si      -2.01578976      -2.25513777       2.17110356       0.00000000
Si       1.90086381      -1.36278786       2.90784369       0.00000000
Si       1.74431691       0.02797808      -3.36862937       0.00000000
