10
Lattice="16.28999089631971 0.0 0.0 0.0 16.28999089631971 0.0 0.0 0.0 34.46413024517268" Properties=species:S:1:pos:R:3:initial_magmoms:R:1 pbc="T T T"
Si       1.51589853      -1.09538425       1.62321737       0.00000000
Si      -1.22272740       1.73212710       1.35047770       0.00000000
Si       1.43161407       0.68392750      -2.10920595       0.00000000
Si      -2.44415160      -1.10318716      -0.44817180       0.00000000
Si      -0.65381544       1.46280453      -2.81406674       0.00000000
Si       0.18063981      -3.35487241      -1.01579634       0.00000000
Si      -0.27163575      -2.15154640       2.85676579       0.00000000
Si      -2.40925842      -0.14842145      -2.79104468       0.00000000
Si       2.57155569       0.68653553       2.89583435       0.00000000
Si      -2.53716750       3.11679339      -0.05796870       0.00000000
