10
Lattice="16.28999089631971 0.0 0.0 0.0 16.28999089631971 0.0 0.0 0.0 34.46413024517268" Properties=species:S:1:pos:R:3:initial_magmoms:R:1 pbc="T T T"
Si       1.29718899      -1.96066440       0.05541835       0.00000000
Si       0.83601909       1.94049738       1.07276558       0.00000000
Si      -2.39433678      -0.42930666       0.08257610       0.00000000
Si       0.40058739       0.73782297      -2.36951367       0.00000000
Si       2.65745286      -1.33841898      -1.75229522       0.00000000
Si      -0.36051399      -3.43999188      -0.79405400       0.00000000
Si      -0.52681860       3.70271700       0.35791019       0.00000000
Si      -2.63070468      -2.66706396      -0.76951553       0.00000000
Si      -3.36456918       0.96537798      -1.64821349       0.00000000
Si       0.48146724       1.83694185       3.38913553       0.00000000
