10
Lattice="16.28999089631971 0.0 0.0 0.0 16.28999089631971 0.0 0.0 0.0 34.46413024517268" Properties=species:S:1:pos:R:3:initial_magmoms:R:1 pbc="T T T"
Si       1.05135660       1.98185769       0.88414329       0.00000000
Si       1.97517879      -1.26159534       0.57475862       0.00000000
Si      -1.78997778      -1.03404033       1.29605881       0.00000000
Si      -0.74380140      -0.17397720      -2.37389062       0.00000000
Si      -2.45851938       1.53743391      -2.25540287       0.00000000
Si       3.13333263       2.22395967      -0.24952044       0.00000000
Si      -0.07444530       3.84719301      -0.30835075       0.00000000
Si       1.04777280       1.70329869       3.30218248       0.00000000
Si      -3.34842579      -1.88170677      -0.43828059       0.00000000
Si      -2.26698156       3.10876731      -0.40967535       0.00000000
