10
Lattice="16.28999089631971 0.0 0.0 0.0 16.28999089631971 0.0 0.0 0.0 34.46413024517268" Properties=species:S:1:pos:R:3:initial_magmoms:R:1 pbc="T T T"
Si      -1.47918087       1.67702292      -0.64616834       0.00000000
Si       2.05625412       1.20445002      -0.16205043       0.00000000
Si       0.06910218      -2.06286786      -1.20758933       0.00000000
Si      -0.24825960      -0.72000171       2.29448522       0.00000000
Si       2.28584538      -2.53182438      -0.48404898       0.00000000
Si       3.60841419      -0.56752731      -0.33923062       0.00000000
Si      -3.55061727       1.10591181       0.39919824       0.00000000
Si      -1.90280232       1.39483125      -2.94137730       0.00000000
Si      -1.38939039       1.37813400       3.24128433       0.00000000
Si       2.34158976       2.31329403       1.89022074       0.00000000
