10
Lattice="16.28999089631971 0.0 0.0 0.0 16.28999089631971 0.0 0.0 0.0 34.46413024517268" Properties=species:S:1:pos:R:3:initial_magmoms:R:1 pbc="T T T"
Si       1.35656604      -1.35739683       1.36309158       0.00000000
Si      -1.36122498       1.35922131       1.36295372       0.00000000
Si      -1.36980981      -1.36772469      -1.36523525       0.00000000
Si       1.38039831       1.35006633      -1.37880378       0.00000000
Si      -0.11315034       2.55733452      -2.73824905       0.00000000
Si       2.71067229      -2.71127502       0.00637587       0.00000000
Si      -2.71171485       2.71529865       0.00737533       0.00000000
Si      -2.71357191      -2.71433754       0.00354981       0.00000000
Si       2.71467963       2.71586880       0.00130964       0.00000000
Si       2.71321353       0.00097740       2.71973836       0.00000000
