10
Lattice="16.28999089631971 0.0 0.0 0.0 16.28999089631971 0.0 0.0 0.0 34.46413024517268" Properties=species:S:1:pos:R:3:initial_magmoms:R:1 pbc="T T T"
Si      -1.29841074       1.33486776      -1.43350183       0.00000000
Si      -1.69121151      -0.75952125       1.50305049       0.00000000
Si       1.23621552       1.64569725       1.21603305       0.00000000
Si       1.41301089      -1.37901366      -1.40320785       0.00000000
Si      -0.60988131       3.32840538       1.26176698       0.00000000
Si      -2.55161673      -2.57052942       0.15987919       0.00000000
Si      -2.56412745       2.67110388       0.02515883       0.00000000
Si      -2.65010607      -0.02296890      -2.78163597       0.00000000
Si       0.06366132       2.68776855      -2.78201508       0.00000000
Si      -3.40592949       0.95188986       1.62153823       0.00000000
