10
Lattice="16.28999089631971 0.0 0.0 0.0 16.28999089631971 0.0 0.0 0.0 34.46413024517268" Properties=species:S:1:pos:R:3:initial_magmoms:R:1 pbc="T T T"
Si       1.26571671      -1.33623612      -1.45866066       0.00000000
Si       1.95424614       0.65730150       1.23660815       0.00000000
Si      -1.44409221       1.37192751      -1.42857346       0.00000000
Si      -0.84180204      -1.71921402       1.59637941       0.00000000
Si      -0.65026422      -0.14788062       3.44210693       0.00000000
Si       2.56412745      -2.67110388      -0.02515883       0.00000000
Si       2.62831005       2.63080242      -0.01471619       0.00000000
Si       0.87291594      -3.43062513       1.47789166       0.00000000
Si       2.62778877       0.01666467      -2.80717391       0.00000000
Si      -2.75322177      -2.70296712      -0.01247602       0.00000000
