10
Lattice="16.28999089631971 0.0 0.0 0.0 16.28999089631971 0.0 0.0 0.0 34.46413024517268" Properties=species:S:1:pos:R:3:initial_magmoms:R:1 pbc="T T T"
Si      -2.19253626      -0.73842570      -0.10132460       0.00000000
Si       0.41197410       0.06675642      -2.30682338       0.00000000
Si       0.44457039       2.05239339       1.13376713       0.00000000
Si       1.12580190      -1.86533532       1.19249404       0.00000000
Si      -2.53847070      -0.29812329       2.25995214       0.00000000
Si       2.45552202       2.37529377      -0.30748914       0.00000000
Si       3.20777793      -1.62323334       0.05883030       0.00000000
Si       2.25807093      -1.61595171      -2.35255731       0.00000000
Si      -2.38407408      -2.30975910      -1.94705213       0.00000000
Si       0.07444530      -3.84719301       0.30835075       0.00000000
