10
Lattice="16.28999089631971 0.0 0.0 0.0 16.28999089631971 0.0 0.0 0.0 34.46413024517268" Properties=species:S:1:pos:R:3:initial_magmoms:R:1 pbc="T T T"
Si      -1.35774171      -1.35609037       1.35764624       0.00000000
Si       1.35716013      -1.35723882      -1.35733606       0.00000000
Si       1.35703795       1.35860229       1.35702589       0.00000000
Si      -1.35775800       1.35788553      -1.35774963       0.00000000
Si       0.00228175       2.71513575       2.71298338       0.00000000
Si      -0.00010136      -2.71376656      -2.71443088       0.00000000
Si       2.71373920      -2.71458307       0.00027571       0.00000000
Si       2.71373920      -0.00110772       2.71508570       0.00000000
Si      -0.00031109       2.71588509      -2.71319017       0.00000000
Si       2.71450483       2.71463076       0.00017232       0.00000000
