10
Lattice="16.28999089631971 0.0 0.0 0.0 16.28999089631971 0.0 0.0 0.0 34.46413024517268" Properties=species:S:1:pos:R:3:initial_magmoms:R:1 pbc="T T T"
Si      -1.35055503       1.36008468       1.35678464       0.00000000
Si      -1.35521397      -1.35725022      -1.35761178       0.00000000
Si       1.35811359      -1.35777150       1.35874909       0.00000000
Si       1.35966114       1.35834165      -1.35719821       0.00000000
Si      -0.00395847      -2.71067229       2.70726234       0.00000000
Si      -0.00995319       2.69060301       2.73166295       0.00000000
Si      -2.71360449      -2.71308321      -0.00103392       0.00000000
Si      -2.71300176       2.71419093       0.00006893       0.00000000
Si      -2.71334385       0.00131949      -2.71422409       0.00000000
Si       0.00237834      -2.71420722      -2.71422409       0.00000000
