10
Lattice="16.28999089631971 0.0 0.0 0.0 16.28999089631971 0.0 0.0 0.0 34.46413024517268" Properties=species:S:1:pos:R:3:initial_magmoms:R:1 pbc="T T T"
Si       1.37226960      -1.24874253      -1.43853360       0.00000000
Si       0.97080255       1.70088777       1.32245834       0.00000000
Si      -0.67406391      -1.97350092       1.25132434       0.00000000
Si      -1.36858806       1.43423676      -1.41954385       0.00000000
Si       1.36948401       0.33503643       3.25065858       0.00000000
Si      -2.62831005      -2.63080242       0.01471619       0.00000000
Si      -0.88519860       3.39637282       1.23974439       0.00000000
Si       2.64841191       2.72057661      -0.06082922       0.00000000
Si       2.77469199      -2.61050508      -0.14002784       0.00000000
Si      -0.00052128      -2.61413775      -2.79245771       0.00000000
