10
Lattice="16.28999089631971 0.0 0.0 0.0 16.28999089631971 0.0 0.0 0.0 34.46413024517268" Properties=species:S:1:pos:R:3:initial_magmoms:R:1 pbc="T T T"
Si       1.21111263       1.35426915       1.54126920       0.00000000
Si      -1.41125157      -1.23137739       1.53903937       0.00000000
Si      -1.21108005       0.07680735      -2.20532646       0.00000000
Si       1.66338819       0.15094314      -2.33129293       0.00000000
Si      -0.96140322       2.40262839      -1.76366839       0.00000000
Si      -2.55311541      -2.77112448       0.08795251       0.00000000
Si       2.70964602      -1.89504828      -1.84507271       0.00000000
Si       2.99864691       2.41043130       0.30772078       0.00000000
Si      -3.36344517      -1.21373532      -1.52865735       0.00000000
Si      -0.02959893      -2.55552633       2.95062201       0.00000000
