10
Lattice="16.28999089631971 0.0 0.0 0.0 16.28999089631971 0.0 0.0 0.0 34.46413024517268" Properties=species:S:1:pos:R:3:initial_magmoms:R:1 pbc="T T T"
Si       1.18325673      -1.43336420      -1.42709150       0.00000000
Si       1.35337320       1.36012060       1.35139789       0.00000000
Si      -1.35003375       1.32359353      -1.39073872       0.00000000
Si      -1.36199061      -1.35186533       1.35174253       0.00000000
Si       2.06690778       0.41682697      -2.67084614       0.00000000
Si      -2.40569091      -0.45832625      -2.66335570       0.00000000
Si      -0.57445056      -2.45922695      -2.78800292       0.00000000
Si       2.71190950       0.00291682       2.71218037       0.00000000
Si      -0.00350235      -2.71390481       2.71166341       0.00000000
Si      -2.72205900       2.70619262      -0.01671167       0.00000000
