10
Lattice="16.28999089631971 0.0 0.0 0.0 16.28999089631971 0.0 0.0 0.0 34.46413024517268" Properties=species:S:1:pos:R:3:initial_magmoms:R:1 pbc="T T T"
Si       1.35773892       1.35672894      -1.35633660       0.00000000
Si       1.35803214      -1.35743117       1.35726714       0.00000000
Si      -1.35698958       1.35783666       1.35805981       0.00000000
Si      -1.35938421      -1.35853595      -1.35685357       0.00000000
Si      -2.71127502       0.00002443      -2.71532695       0.00000000
Si       0.00029322       2.71407690       2.71319017       0.00000000
Si      -0.00083079      -2.71092383      -2.71729140       0.00000000
Si      -2.71432125       2.71479366      -0.00003446       0.00000000
Si      -2.71409319       0.00052454       2.71512016       0.00000000
Si      -2.71477737      -2.71457279       0.00041357       0.00000000
