10
Lattice="16.28999089631971 0.0 0.0 0.0 16.28999089631971 0.0 0.0 0.0 34.46413024517268" Properties=species:S:1:pos:R:3:initial_magmoms:R:1 pbc="T T T"
Si      -1.33639902      -1.36656484       1.35295912       0.00000000
Si       1.35697329      -1.35639988      -1.35819767       0.00000000
Si      -1.35816246       1.35614250      -1.36023105       0.00000000
Si       1.35343836       1.35689184       1.37691170       0.00000000
Si       2.65888638      -0.13717809       2.72670012       0.00000000
Si      -2.71334385       2.71239903       0.00337749       0.00000000
Si      -0.00061902       2.71432125      -2.71556820       0.00000000
Si       2.71471500      -0.00030951      -2.71584391       0.00000000
Si      -2.71544526      -0.00009774      -2.71536141       0.00000000
Si       2.71663443      -2.71455650      -0.00086160       0.00000000
