10
Lattice="16.28999089631971 0.0 0.0 0.0 16.28999089631971 0.0 0.0 0.0 34.46413024517268" Properties=species:S:1:pos:R:3:initial_magmoms:R:1 pbc="T T T"
Si       1.42372386      -1.23215117      -1.37181101       0.00000000
Si      -1.30544802       1.49406993      -1.34978842       0.00000000
Si       1.60659540       1.15461891       1.36453907       0.00000000
Si      -1.11327489      -1.74068913       1.36112712       0.00000000
Si       2.68450145      -2.41143476       0.27943532       0.00000000
Si       0.75397518      -3.22348868       1.64990223       0.00000000
Si       0.05774805      -2.57737841      -2.72756172       0.00000000
Si      -2.65888638       0.13717809      -2.72670012       0.00000000
Si      -2.72694600      -2.67459713       0.00506623       0.00000000
Si      -1.90633725       1.95321987       2.71518909       0.00000000
