10
Lattice="16.28999089631971 0.0 0.0 0.0 16.28999089631971 0.0 0.0 0.0 34.46413024517268" Properties=species:S:1:pos:R:3:initial_magmoms:R:1 pbc="T T T"
Si       1.58731389       0.16454529       1.62984409       0.00000000
Si       1.34133489      -1.07677389      -1.55443654       0.00000000
Si      -2.18812167      -0.20383677       0.96747760       0.00000000
Si      -1.66705344       1.96915149       0.15016030       0.00000000
Si       0.54827253       2.61713511      -0.20037457       0.00000000
Si       0.29970342       2.33344476       2.20880734       0.00000000
Si      -0.12631266      -3.03250472       1.63608211       0.00000000
Si      -0.27233622      -2.01068189      -2.91049743       0.00000000
Si       2.45460978       0.66391524      -2.91556366       0.00000000
Si      -1.94994558      -3.03037073      -1.52720986       0.00000000
