10
Lattice="16.28999089631971 0.0 0.0 0.0 16.28999089631971 0.0 0.0 0.0 34.46413024517268" Properties=species:S:1:pos:R:3:initial_magmoms:R:1 pbc="T T T"
Si      -0.68660721       1.34252406       1.76956176       0.00000000
Si       2.18935971      -0.31552101      -0.87228762       0.00000000
Si      -0.70794711       1.33592661      -1.84107487       0.00000000
Si      -1.20985830      -2.05477987       0.71771591       0.00000000
Si       2.26347921      -2.46109646      -0.04214965       0.00000000
Si      -2.90335041       1.81148058       1.04602140       0.00000000
Si      -2.94630714       1.61587026      -1.31391124       0.00000000
Si       0.19028349      -3.60527741      -0.38410295       0.00000000
Si      -0.18130770       0.09806580      -3.76220995       0.00000000
Si       0.63596160       3.30682113       1.91438011       0.00000000
