10
Lattice="16.28999089631971 0.0 0.0 0.0 16.28999089631971 0.0 0.0 0.0 34.46413024517268" Properties=species:S:1:pos:R:3:initial_magmoms:R:1 pbc="T T T"
Si       2.25171457       0.72169587       0.46233657       0.00000000
Si      -0.77632668      -0.06284682       2.31057998       0.00000000
Si       0.98806995      -1.70645895      -1.48998858       0.00000000
Si      -1.77099408       1.32519150      -1.20538363       0.00000000
Si      -2.52486270      -0.90785799      -0.13933856       0.00000000
Si       2.09995693      -0.05714532      -2.87934183       0.00000000
Si      -1.44780048       2.15702406       2.56492540       0.00000000
Si       1.96038421       2.63844243       1.74819398       0.00000000
Si       2.90266297       1.80628407      -1.56450007       0.00000000
Si      -2.77343181      -1.19154834       2.26984335       0.00000000
