10
Lattice="16.28999089631971 0.0 0.0 0.0 16.28999089631971 0.0 0.0 0.0 34.46413024517268" Properties=species:S:1:pos:R:3:initial_magmoms:R:1 pbc="T T T"
Si      -1.35343836      -1.35689184      -1.37691170       0.00000000
Si       1.36355839       1.35793440      -1.37977223       0.00000000
Si      -1.30469868       1.39458690       1.41254763       0.00000000
Si       1.30544802      -1.49406993       1.34978842       0.00000000
Si       2.70620461       2.70122409      -0.02481419       0.00000000
Si      -2.68983738      -2.72345668      -0.02395258       0.00000000
Si      -2.72108160       2.71982727       0.00203338       0.00000000
Si       0.00353493      -2.71329172      -2.73510937       0.00000000
Si       0.00293220       2.71378368      -2.73483366       0.00000000
Si      -2.71160082      -0.00074934      -2.73714275       0.00000000
