10
Lattice="16.28999089631971 0.0 0.0 0.0 16.28999089631971 0.0 0.0 0.0 34.46413024517268" Properties=species:S:1:pos:R:3:initial_magmoms:R:1 pbc="T T T"
Si       0.14636565      -1.44428769      -1.80381912       0.00000000
Si      -1.01535570       2.08500597      -0.25868791       0.00000000
Si      -0.89252910      -0.72075105       2.04196639       0.00000000
Si       2.31419717       0.28321794       0.49445715       0.00000000
Si       0.49304358       0.81723672       3.17949011       0.00000000
Si       0.01806561       2.76356592       1.86426924       0.00000000
Si       2.40079481      -1.28132253      -2.54300620       0.00000000
Si       3.44446253      -1.53295416      -0.48773664       0.00000000
Si      -1.02977235      -3.06655992       2.00722653       0.00000000
Si      -3.38962320       1.80193464      -0.63920658       0.00000000
