10
Lattice="16.28999089631971 0.0 0.0 0.0 16.28999089631971 0.0 0.0 0.0 34.46413024517268" Properties=species:S:1:pos:R:3:initial_magmoms:R:1 pbc="T T T"
Si      -0.83580732      -1.69246584       1.40927151       0.00000000
Si       1.86873993       0.95959503       1.19591775       0.00000000
Si       0.47456028      -1.18395720      -2.12016555       0.00000000
Si      -1.81346796       1.84585248       0.03808289       0.00000000
Si      -2.21594499      -0.33715413       2.82251876       0.00000000
Si       0.53426313       2.38063689       2.80895023       0.00000000
Si      -0.19947105       0.35166852      -3.78450826       0.00000000
Si      -1.60625916      -3.61022238       0.10969939       0.00000000
Si      -0.95928552       3.58790508       1.44950496       0.00000000
Si      -3.62118555       0.94920201       1.38166573       0.00000000
