10
Lattice="16.28999089631971 0.0 0.0 0.0 16.28999089631971 0.0 0.0 0.0 34.46413024517268" Properties=species:S:1:pos:R:3:initial_magmoms:R:1 pbc="T T T"
Si       1.36199061       1.35186533      -1.35174253       0.00000000
Si      -1.35855342       1.35238788       1.36043784       0.00000000
Si       1.35848826      -1.36203948       1.35992088       0.00000000
Si      -1.37371941      -1.38228795      -1.36535243       0.00000000
Si       2.54524734      -0.08149887      -2.77883404       0.00000000
Si       0.01195686       2.67545887      -2.74248125       0.00000000
Si      -2.71044423       2.71094826       0.00196446       0.00000000
Si       2.71536381       2.71198593      -0.00034464       0.00000000
Si       0.00083079       2.71092383       2.71729140       0.00000000
Si      -2.70876636      -2.71981098       0.00516962       0.00000000
