10
Lattice="16.28999089631971 0.0 0.0 0.0 16.28999089631971 0.0 0.0 0.0 34.46413024517268" Properties=species:S:1:pos:R:3:initial_magmoms:R:1 pbc="T T T"
Si      -0.40682646       1.66689054       1.56250115       0.00000000
Si       2.12692014      -0.92828565       0.14805799       0.00000000
Si      -0.08228079       1.36234899      -1.97679469       0.00000000
Si      -1.24582010      -2.09010474       0.12176184       0.00000000
Si       0.20904957      -0.55439757      -3.26265211       0.00000000
Si       1.89578133      -1.86517242      -2.14804705       0.00000000
Si      -2.81899169      -1.33894026      -1.41440870       0.00000000
Si      -3.49046549       0.88093062      -1.16006327       0.00000000
Si       1.13148711       3.48061914       0.98550236       0.00000000
Si      -2.66125562       1.50392538       2.30168822       0.00000000
