10
Lattice="16.28999089631971 0.0 0.0 0.0 16.28999089631971 0.0 0.0 0.0 34.46413024517268" Properties=species:S:1:pos:R:3:initial_magmoms:R:1 pbc="T T T"
Si       1.42495146       1.36371735       1.23509173       0.00000000
Si      -0.39868146       1.36585134      -1.92820024       0.00000000
Si      -2.01095163      -0.32290038       1.44125627       0.00000000
Si       1.84642263      -1.72890657      -0.01730100       0.00000000
Si      -2.45552202      -2.37529377       0.30748914       0.00000000
Si       3.26445084      -0.11759751       1.25253059       0.00000000
Si      -1.36948401      -0.33503643      -3.25065858       0.00000000
Si      -0.74554443      -0.65422269       3.41605203       0.00000000
Si      -2.04354792      -2.30853735      -1.99933424       0.00000000
Si       0.58347522       1.26420174       3.40988295       0.00000000
