10
Lattice="16.28999089631971 0.0 0.0 0.0 16.28999089631971 0.0 0.0 0.0 34.46413024517268" Properties=species:S:1:pos:R:3:initial_magmoms:R:1 pbc="T T T"
Si       0.87447978       0.07460820       2.20570557       0.00000000
Si      -1.07561241       2.03280371      -0.71999055       0.00000000
Si       1.63258380      -0.23423391      -1.77624780       0.00000000
Si      -1.56170601      -1.85951979       0.12789646       0.00000000
Si      -0.00050499      -0.17270658      -3.51217255       0.00000000
Si      -1.77272667       1.25707391      -2.84132788       0.00000000
Si      -0.52566201       1.62510573       3.30752443       0.00000000
Si      -0.11416032      -3.77944290      -0.19279245       0.00000000
Si       0.50288859       3.77795141      -1.17240144       0.00000000
Si      -2.94956514      -1.93960143      -1.86771565       0.00000000
