10
Lattice="16.28999089631971 0.0 0.0 0.0 16.28999089631971 0.0 0.0 0.0 34.46413024517268" Properties=species:S:1:pos:R:3:initial_magmoms:R:1 pbc="T T T"
Si      -1.71049887       0.45625032       1.53241394       0.00000000
Si      -0.91538397      -0.88769097      -1.97358952       0.00000000
Si       0.90979650       2.13608035      -0.47484705       0.00000000
Si       1.72363254      -1.42074864       0.81948855       0.00000000
Si       3.50001143      -0.47166066      -0.34036794       0.00000000
Si      -0.67258152       2.17382526       2.75906195       0.00000000
Si       0.54247329       2.18649660      -2.85359711       0.00000000
Si      -1.53072243       1.04231565      -3.19555041       0.00000000
Si      -3.32426772       1.60974522       0.15522653       0.00000000
Si       3.22431947       1.77510501       0.35194789       0.00000000
