10
Lattice="16.28999089631971 0.0 0.0 0.0 16.28999089631971 0.0 0.0 0.0 34.46413024517268" Properties=species:S:1:pos:R:3:initial_magmoms:R:1 pbc="T T T"
Si      -1.70152960       1.56491514      -0.23918120       0.00000000
Si       1.48434480       0.33844104       1.75622413       0.00000000
Si      -1.31344641      -1.92639024       0.10249638       0.00000000
Si       1.07776269       0.73272420      -1.96935043       0.00000000
Si      -1.99930754      -1.46096865      -2.11258344       0.00000000
Si       1.86712722       2.68620471      -0.99601392       0.00000000
Si      -2.35181336       0.85320504      -2.35893318       0.00000000
Si      -0.27689742       3.44688255      -0.16401489       0.00000000
Si       0.23949558      -3.68486316      -0.17307896       0.00000000
Si       2.29004820      -1.03863411      -2.78235972       0.00000000
