10
Lattice="16.28999089631971 0.0 0.0 0.0 16.28999089631971 0.0 0.0 0.0 34.46413024517268" Properties=species:S:1:pos:R:3:initial_magmoms:R:1 pbc="T T T"
Si      -1.10410362       1.38673512       1.52469397       0.00000000
Si       1.33753932       1.34794863      -1.37398225       0.00000000
Si      -1.38357486      -1.36143675      -1.36950191       0.00000000
Si       1.38013767      -1.36614456       1.42216313       0.00000000
Si      -2.20977108      -0.49089915       2.49279193       0.00000000
Si      -0.63177507      -2.25983025       2.64405509       0.00000000
Si       2.68926723       2.70875007       0.00606569       0.00000000
Si       2.68943013      -0.00182448      -2.73231777       0.00000000
Si       2.69534340      -2.72745099       0.01075281       0.00000000
Si      -2.71806469       2.72023452       0.02453847       0.00000000
