10
Lattice="16.28999089631971 0.0 0.0 0.0 16.28999089631971 0.0 0.0 0.0 34.46413024517268" Properties=species:S:1:pos:R:3:initial_magmoms:R:1 pbc="T T T"
Si       1.32585287      -1.41747435      -1.29364632       0.00000000
Si       0.03363396      -1.06987833       2.19043795       0.00000000
Si      -1.60816250       1.45384992      -1.16102827       0.00000000
Si       1.57546454       1.89708453       0.83654830       0.00000000
Si       0.71343358       1.05318108       2.86304029       0.00000000
Si      -2.77679081       1.64717964       0.86684229       0.00000000
Si       2.43152033       0.46015992      -2.26174428       0.00000000
Si      -0.52388298      -2.33357508      -2.38857235       0.00000000
Si       3.50017691       0.85515984      -0.02209152       0.00000000
Si       1.96157012      -2.35424709       2.17031089       0.00000000
