10
Lattice="16.28999089631971 0.0 0.0 0.0 16.28999089631971 0.0 0.0 0.0 34.46413024517268" Properties=species:S:1:pos:R:3:initial_magmoms:R:1 pbc="T T T"
Si      -1.32585287       1.41747435       1.29364632       0.00000000
Si      -1.84973585      -0.91610073      -1.09492603       0.00000000
Si       1.57799601      -1.76893110       0.15126315       0.00000000
Si       1.10566746       1.87763427      -0.96809796       0.00000000
Si       2.20977108       0.49089915      -2.49279193       0.00000000
Si       2.17432404       2.27263419       1.27155480       0.00000000
Si      -0.54243582      -2.24099901      -2.51336703       0.00000000
Si       0.63571725      -0.93677274       3.46395720       0.00000000
Si       2.50504362       0.29494674       2.67210890       0.00000000
Si       0.92704761      -2.85351930       2.17809978       0.00000000
