10
Lattice="16.28999089631971 0.0 0.0 0.0 16.28999089631971 0.0 0.0 0.0 34.46413024517268" Properties=species:S:1:pos:R:3:initial_magmoms:R:1 pbc="T T T"
Si       1.04366772      -0.25163163       2.05526956       0.00000000
Si       0.40682646      -1.66689054      -1.56250115       0.00000000
Si      -2.25442916      -0.16296516       0.73918708       0.00000000
Si       1.53831357       1.81372860      -0.57699879       0.00000000
Si      -0.08659764       1.56454047       3.03746335       0.00000000
Si       0.32454567      -0.30454155      -3.53929583       0.00000000
Si      -2.40079481       1.28132253       2.54300620       0.00000000
Si       3.29532039       0.42816636       2.01074187       0.00000000
Si       2.53374660      -2.59517619      -1.41444316       0.00000000
Si       0.57966336      -2.20229397       3.19717022       0.00000000
