10
Lattice="16.28999089631971 0.0 0.0 0.0 16.28999089631971 0.0 0.0 0.0 34.46413024517268" Properties=species:S:1:pos:R:3:initial_magmoms:R:1 pbc="T T T"
Si       2.18458674       0.81251036      -0.14733424       0.00000000
Si       0.10743255      -2.30303133      -0.64730566       0.00000000
Si      -1.78734599       1.14500522      -1.14224531       0.00000000
Si      -0.23161122       0.19121202       2.40187551       0.00000000
Si      -2.22276140      -2.56710852      -0.89158755       0.00000000
Si       3.10663332       0.06372648       1.94160679       0.00000000
Si      -3.51224522      -0.52543395      -0.96261816       0.00000000
Si       1.65089376       1.48224406       3.08081925       0.00000000
Si      -2.34070100       3.11659370       0.09601712       0.00000000
Si       3.51578925      -0.40501827      -1.63711603       0.00000000
