10
Lattice="10.86 0.0 0.0 0.0 10.86 0.0 0.0 0.0 10.86" Properties=species:S:1:pos:R:3:initial_magmoms:R:1 pbc="T T T"
Si      -1.24765110       1.48792860      -1.11600618       0.00000000
Si      -1.24765110      -1.22707140       1.59899382       0.00000000
Si       1.30156014      -1.71127536      -1.01387874       0.00000000
Si       1.46734890       1.48792860       1.59899382       0.00000000
Si      -2.60515110       0.13042860      -2.47350618       0.00000000
Si      -0.08703204      -2.64549600      -2.45079792       0.00000000
Si       2.95070544      -0.06655008      -2.18516232       0.00000000
Si      -2.60515110      -2.58457140       0.24149382       0.00000000
Si       0.10984890       2.84542860      -2.47350618       0.00000000
Si      -2.60515110       2.84542860       0.24149382       0.00000000
