10
Lattice="10.86 0.0 0.0 0.0 10.86 0.0 0.0 0.0 10.86" Properties=species:S:1:pos:R:3:initial_magmoms:R:1 pbc="T T T"
Si      -1.22166312       1.26489678      -1.30776120       0.00000000
Si      -1.22166312      -1.45010322       1.40723880       0.00000000
Si       1.49333688      -1.45010322      -1.30776120       0.00000000
Si       2.53559280       2.47148622      -0.00026064       0.00000000
Si      -2.57916312      -0.09260322      -2.66526120       0.00000000
Si      -2.51146188      -0.16534350       2.74686324       0.00000000
Si       0.13583688       2.62239678      -2.66526120       0.00000000
Si      -2.77604406       2.56147218       0.07244706       0.00000000
Si      -2.57916312      -2.80760322       0.04973880       0.00000000
Si       0.13583688      -2.80760322      -2.66526120       0.00000000
