10
Lattice="10.86 0.0 0.0 0.0 10.86 0.0 0.0 0.0 10.86" Properties=species:S:1:pos:R:3:initial_magmoms:R:1 pbc="T T T"
Si       1.21477788       1.29137346       1.27364994       0.00000000
Si       1.10854536      -1.46628462      -1.29866052       0.00000000
Si      -1.60645464       1.24871538      -1.29866052       0.00000000
Si      -1.60645464      -1.46628462       1.41633948       0.00000000
Si       2.36595960       2.65351068      -0.21717828       0.00000000
Si       2.46604536      -0.10878462      -2.65616052       0.00000000
Si      -0.24895464       2.60621538      -2.65616052       0.00000000
Si      -0.02996274       2.53584258       2.92924608       0.00000000
Si      -0.24895464      -2.82378462      -2.65616052       0.00000000
Si       2.48185752      -3.04430778       0.02592282       0.00000000
