10
Lattice="10.86 0.0 0.0 0.0 10.86 0.0 0.0 0.0 10.86" Properties=species:S:1:pos:R:3:initial_magmoms:R:1 pbc="T T T"
Si      -1.21477788      -1.29137346      -1.27364994       0.00000000
Si       1.15118172       1.36213722      -1.49082822       0.00000000
Si      -1.24474062       1.24446912       1.65559614       0.00000000
Si       2.60876748      -0.04265808      -2.57231046       0.00000000
Si      -0.10623252       2.67234192      -2.57231046       0.00000000
Si       2.60876748       2.67234192       0.14268954       0.00000000
Si      -0.10623252      -2.75765808      -2.57231046       0.00000000
Si      -2.82123252      -0.04265808      -2.57231046       0.00000000
Si      -2.82123252       2.67234192       0.14268954       0.00000000
Si      -0.10623252       2.67234192       2.85768954       0.00000000
