10
Lattice="16.28999089631971 0.0 0.0 0.0 16.28999089631971 0.0 0.0 0.0 34.53561885213415" Properties=species:S:1:pos:R:3:initial_magmoms:R:1 pbc="T T T"
Si      -1.79636346      -0.61016638      -1.35448570       0.00000000
Si       1.45380105      -1.22857491       1.36899960       0.00000000
Si       1.80628407       0.93839685      -1.20510486       0.00000000
Si      -1.27467621       1.50362727       1.36905486       0.00000000
Si      -2.64469779      -2.45149417      -0.03426281       0.00000000
Si       0.08842212      -2.58086935       2.74532422       0.00000000
Si      -2.63119338       0.14318096       2.74763810       0.00000000
Si       2.89484703      -2.47444678      -0.25370570       0.00000000
Si      -2.64284073       2.80920561      -0.16458994       0.00000000
Si       2.75129955       2.70666006       0.10677383       0.00000000
