10
Lattice="16.28999089631971 0.0 0.0 0.0 16.28999089631971 0.0 0.0 0.0 34.53561885213415" Properties=species:S:1:pos:R:3:initial_magmoms:R:1 pbc="T T T"
Si      -0.32591403       0.67064790       2.24298609       0.00000000
Si      -1.89372879      -0.79838088      -1.29691682       0.00000000
Si       0.90261261       1.91587342      -1.41326738       0.00000000
Si       1.81333764      -1.78834945       0.02189559       0.00000000
Si      -0.54499824      -2.15244724      -2.82301213       0.00000000
Si      -2.46949884       1.69950964       2.02945224       0.00000000
Si       2.19748842       0.55470545      -2.83043730       0.00000000
Si       0.88034418      -3.41948344      -1.42832492       0.00000000
Si       3.54056634      -0.75722371      -1.32665200       0.00000000
Si       2.78629047       2.83868563      -0.18569813       0.00000000
