10
Lattice="16.28999089631971 0.0 0.0 0.0 16.28999089631971 0.0 0.0 0.0 34.53561885213415" Properties=species:S:1:pos:R:3:initial_magmoms:R:1 pbc="T T T"
Si      -0.76139460      -2.18799135      -0.01664618       0.00000000
Si       2.21415309       0.22265172      -0.76026754       0.00000000
Si       0.11391597       0.98684820       2.15029244       0.00000000
Si      -0.93256992       1.56450789      -1.59530473       0.00000000
Si       1.09190241       2.91416697       1.25474881       0.00000000
Si      -0.87667893       3.35042946      -0.04779732       0.00000000
Si      -2.49781086      -1.99808253      -1.53839000       0.00000000
Si       2.06896032      -0.16136874      -3.08696802       0.00000000
Si       2.92511385       2.45094453      -0.10616255       0.00000000
Si       0.60382143       1.64918331      -3.46758528       0.00000000
