10
Lattice="16.28999089631971 0.0 0.0 0.0 16.28999089631971 0.0 0.0 0.0 34.53561885213415" Properties=species:S:1:pos:R:3:initial_magmoms:R:1 pbc="T T T"
Si      -1.51451388       1.38686544      -1.16564686       0.00000000
Si       1.11259071       1.44425511       1.60100453       0.00000000
Si      -1.58998545      -1.18806228       1.56288064       0.00000000
Si       1.24279668      -0.75616551      -2.33008497       0.00000000
Si      -0.19613160       2.93140179      -2.29969361       0.00000000
Si       2.77970931       2.63746503       0.37205243       0.00000000
Si      -0.22182093      -2.49364062       3.09652545       0.00000000
Si       2.48425758       0.21126501       3.10569121       0.00000000
Si      -3.02710554       2.73075786       0.22240951       0.00000000
Si      -2.66219325      -3.09174426       0.49956979       0.00000000
