10
Lattice="16.28999089631971 0.0 0.0 0.0 16.28999089631971 0.0 0.0 0.0 34.53561885213415" Properties=species:S:1:pos:R:3:initial_magmoms:R:1 pbc="T T T"
Si      -1.34705268      -1.35034326       1.38614655       0.00000000
Si       1.36534635       1.36489023       1.38773519       0.00000000
Si      -1.44920727       1.25133264      -1.50349865       0.00000000
Si       1.34185617      -1.47955554      -1.48377880       0.00000000
Si       0.32228136       2.39335938      -2.84994099       0.00000000
Si      -2.69923671       2.71037907       0.01205294       0.00000000
Si       2.71352304      -2.71254564       0.02090788       0.00000000
Si      -2.71414206      -2.72140740       0.00089447       0.00000000
Si       2.72955240       2.71769328       0.01976129       0.00000000
Si      -2.70813105       0.00654858       2.74805944       0.00000000
