10
Lattice="16.28999089631971 0.0 0.0 0.0 16.28999089631971 0.0 0.0 0.0 34.53561885213415" Properties=species:S:1:pos:R:3:initial_magmoms:R:1 pbc="T T T"
Si      -1.35697329      -1.35703845       1.35745779       0.00000000
Si       1.35840681       1.35765747       1.35797583       0.00000000
Si       1.35865116      -1.35637056      -1.35939179       0.00000000
Si      -1.35777150       1.35931905      -1.35970261       0.00000000
Si       2.71456560       2.71384884       0.00165771       0.00000000
Si      -2.71482624      -2.71471221       0.00093246       0.00000000
Si       0.00032580      -2.71435383       2.71550269       0.00000000
Si       2.71443528      -2.71552671       0.00072525       0.00000000
Si      -2.71454931       0.00022806       2.71577898       0.00000000
Si       0.00027693       2.71560816       2.71526094       0.00000000
