10
Lattice="16.28999089631971 0.0 0.0 0.0 16.28999089631971 0.0 0.0 0.0 34.53561885213415" Properties=species:S:1:pos:R:3:initial_magmoms:R:1 pbc="T T T"
Si       1.49968998       0.08070066       1.78214254       0.00000000
Si      -1.93054419      -1.29774285       0.15617016       0.00000000
Si       0.08369802       1.26024327      -2.05797868       0.00000000
Si      -0.77336775      -2.58238854      -1.82372344       0.00000000
Si       2.54047437       2.06187417       1.07727016       0.00000000
Si      -3.12267897       1.23535215      -0.87703253       0.00000000
Si       1.92744909       2.64771144      -1.42165954       0.00000000
Si      -0.03670137      -0.00397476       3.65442309       0.00000000
Si      -2.29907286      -0.02937087       2.85488853       0.00000000
Si       0.72550773      -0.42836184      -3.61104633       0.00000000
