10
Lattice="16.28999089631971 0.0 0.0 0.0 16.28999089631971 0.0 0.0 0.0 34.53561885213415" Properties=species:S:1:pos:R:3:initial_magmoms:R:1 pbc="T T T"
Si       1.93054419       1.29774285      -0.15617016       0.00000000
Si       1.15717644      -1.28464569      -1.97989360       0.00000000
Si       1.17217953      -2.04525837       1.35877015       0.00000000
Si      -1.19213478       2.53309500      -1.03320269       0.00000000
Si      -0.36852867       1.26837198       2.69871837       0.00000000
Si      -2.25846189      -2.08520145      -0.16853391       0.00000000
Si       2.01424221       2.55798612      -2.21414883       0.00000000
Si      -0.36973413      -1.21679784      -3.82199000       0.00000000
Si       3.43023417       1.37844351       1.62597238       0.00000000
Si      -2.13864894       1.70546526      -3.07322283       0.00000000
