10
Lattice="16.28999089631971 0.0 0.0 0.0 16.28999089631971 0.0 0.0 0.0 34.53561885213415" Properties=species:S:1:pos:R:3:initial_magmoms:R:1 pbc="T T T"
Si       0.05589099       1.78592157       1.54750741       0.00000000
Si      -2.26237149      -0.02539611      -0.79953456       0.00000000
Si       0.93256992      -1.56450789       1.59530473       0.00000000
Si       1.53639135       0.08467542      -1.87228055       0.00000000
Si       3.14672301      -1.34185617       0.83503719       0.00000000
Si      -2.99099061      -1.78570980       0.56144587       0.00000000
Si       0.03670137       0.00397476      -3.65442309       0.00000000
Si      -1.89473877       1.32247107       2.91287386       0.00000000
Si       2.02447233       1.34965908       2.85005354       0.00000000
Si       3.00153024      -1.72587663      -1.49166328       0.00000000
