10
Lattice="16.28999089631971 0.0 0.0 0.0 16.28999089631971 0.0 0.0 0.0 34.53561885213415" Properties=species:S:1:pos:R:3:initial_magmoms:R:1 pbc="T T T"
Si      -0.98942202      -1.73382615       1.15804902       0.00000000
Si      -1.17081117       0.76141089      -1.85138649       0.00000000
Si       1.04853843       1.77170040       1.09084267       0.00000000
Si       1.77041349      -1.13871987      -1.01866318       0.00000000
Si      -2.25088704      -1.35847197      -2.08153198       0.00000000
Si       2.74839993       0.78859890      -1.91420682       0.00000000
Si       0.77981859       1.22486139      -3.21675294       0.00000000
Si       2.66067828      -2.17144071       0.90811461       0.00000000
Si      -1.60534692      -3.11238369      -0.63365989       0.00000000
Si       0.78350013      -2.50730793       2.44415618       0.00000000
