10
Lattice="16.28999089631971 0.0 0.0 0.0 16.28999089631971 0.0 0.0 0.0 34.53561885213415" Properties=species:S:1:pos:R:3:initial_magmoms:R:1 pbc="T T T"
Si      -1.34846991      -1.36210464       1.37340980       0.00000000
Si       1.37314926       1.34535852       1.37399691       0.00000000
Si       1.32742323      -1.40080968      -1.38888868       0.00000000
Si      -1.35997065       1.47473370      -1.40559011       0.00000000
Si       2.37931740       0.24452919      -2.76773927       0.00000000
Si      -2.70269019       2.69856203       0.04550416       0.00000000
Si      -2.69663031      -2.73230541      -0.00196162       0.00000000
Si       2.73852819       2.69765297      -0.00232770       0.00000000
Si      -2.70718623      -0.00568521       2.73439023       0.00000000
Si       0.00933417       2.70880247       2.73338870       0.00000000
