10
Lattice="16.28999089631971 0.0 0.0 0.0 16.28999089631971 0.0 0.0 0.0 34.53561885213415" Properties=species:S:1:pos:R:3:initial_magmoms:R:1 pbc="T T T"
Si       1.35663120       1.35648459       1.35742326       0.00000000
Si      -1.35726651       1.35672894      -1.35697429       0.00000000
Si       1.35812988      -1.35795069      -1.35728512       0.00000000
Si      -1.35858600      -1.35879777       1.35728512       0.00000000
Si       2.71428867      -0.00175932      -2.71360323       0.00000000
Si      -2.71437012       2.71502413       0.00013814       0.00000000
Si      -0.00024435       2.71461800      -2.71498466       0.00000000
Si       2.71464705       2.71506028      -0.00020721       0.00000000
Si      -2.71482624      -2.71538010       0.00051803       0.00000000
Si       2.71526607      -2.71508688       0.00017268       0.00000000
