10
Lattice="16.28999089631971 0.0 0.0 0.0 16.28999089631971 0.0 0.0 0.0 34.53561885213415" Properties=species:S:1:pos:R:3:initial_magmoms:R:1 pbc="T T T"
Si      -0.93299346      -1.63113399      -1.45022052       0.00000000
Si       1.72722870       1.03112574      -1.34854760       0.00000000
Si      -1.81333764       1.78834945      -0.02189559       0.00000000
Si       0.48138579      -0.97443522       2.43935573       0.00000000
Si      -1.96480206      -3.14212923       0.17696061       0.00000000
Si       0.38415078       2.34305490      -2.85233289       0.00000000
Si      -2.35833588      -0.36409779      -2.84490773       0.00000000
Si       2.71860552       2.83011776       0.08095154       0.00000000
Si      -2.13925167       2.45899735       2.22109050       0.00000000
Si      -3.70706643       0.98996857      -1.31881241       0.00000000
