10
Lattice="16.28999089631971 0.0 0.0 0.0 16.28999089631971 0.0 0.0 0.0 34.53561885213415" Properties=species:S:1:pos:R:3:initial_magmoms:R:1 pbc="T T T"
Si      -0.84216042       2.20498054       0.26644245       0.00000000
Si      -1.34597754      -1.14596892      -1.75820934       0.00000000
Si      -0.43447059      -0.81054153       2.34880329       0.00000000
Si       2.15050806       0.07788249      -1.48416905       0.00000000
Si       0.30437865       2.99619268       2.22060700       0.00000000
Si      -1.94422779       0.72944991       3.30851414       0.00000000
Si      -0.47012940       3.51131506      -1.70243428       0.00000000
Si      -3.22265559       2.28740337       0.60085103       0.00000000
Si      -1.71823662      -3.49806573      -1.13739671       0.00000000
Si      -3.57253384      -0.10647144      -1.97820135       0.00000000
