10
Lattice="16.28999089631971 0.0 0.0 0.0 16.28999089631971 0.0 0.0 0.0 34.53561885213415" Properties=species:S:1:pos:R:3:initial_magmoms:R:1 pbc="T T T"
Si      -1.12602996      -1.73436113      -0.92331029       0.00000000
Si      -0.99093699       2.09869934       0.34639245       0.00000000
Si       1.15668774      -0.83681471       1.86578785       0.00000000
Si       1.12257648       0.53238163      -2.01121742       0.00000000
Si       0.63843768       3.07321601      -1.06953418       0.00000000
Si       1.66804713       1.27015736       2.76395619       0.00000000
Si      -0.11142360       2.75940545       2.41538800       0.00000000
Si       0.38372724      -3.27435257      -1.88302113       0.00000000
Si       3.15693684      -1.81323731       1.23185168       0.00000000
Si      -0.17933661      -2.19900080       3.19934698       0.00000000
