10
Lattice="16.28999089631971 0.0 0.0 0.0 16.28999089631971 0.0 0.0 0.0 34.53561885213415" Properties=species:S:1:pos:R:3:initial_magmoms:R:1 pbc="T T T"
Si       1.37585340       1.32331163      -1.35163163       0.00000000
Si      -1.35752715       1.35616856       1.35959900       0.00000000
Si       1.35653346      -1.35934939       1.35814851       0.00000000
Si      -1.34338743      -1.37065792      -1.37725707       0.00000000
Si      -0.04588893       2.56457705      -2.63948285       0.00000000
Si      -2.71290402       2.71053545       0.00334996       0.00000000
Si       0.00026064       2.71302782       2.71660783       0.00000000
Si      -2.71446786      -0.00172837       2.71619341       0.00000000
Si       2.71523349      -0.00123804       2.71633155       0.00000000
Si       2.71274112      -2.71896131      -0.00324635       0.00000000
