10
Lattice="16.28999089631971 0.0 0.0 0.0 16.28999089631971 0.0 0.0 0.0 34.53561885213415" Properties=species:S:1:pos:R:3:initial_magmoms:R:1 pbc="T T T"
Si      -0.09368379       0.41088267      -2.28881488       0.00000000
Si      -1.12073571       1.76976189       1.07616502       0.00000000
Si      -0.72878202      -2.19593177       0.49993790       0.00000000
Si       2.31889779      -0.23915349       0.44668394       0.00000000
Si      -0.69879213       0.58714047       3.05612769       0.00000000
Si       1.28552535      -1.65793919      -2.61897558       0.00000000
Si      -1.18900710      -1.64705909       2.69336535       0.00000000
Si       2.66883957      -2.29456772      -0.65148028       0.00000000
Si       3.40834041       1.21896441      -1.06169459       0.00000000
Si      -2.20581261      -0.45786955      -3.04580154       0.00000000
