10
Lattice="16.28999089631971 0.0 0.0 0.0 16.28999089631971 0.0 0.0 0.0 34.53561885213415" Properties=species:S:1:pos:R:3:initial_magmoms:R:1 pbc="T T T"
Si      -2.03602408       1.10156238      -0.21450085       0.00000000
Si       0.23064539      -0.93175542      -2.17001229       0.00000000
Si       1.42228169       1.93502394      -0.14978106       0.00000000
Si      -0.29200039      -1.63035207       1.78286778       0.00000000
Si       3.43871002       0.85983507       0.62544041       0.00000000
Si      -1.96324036       1.84544523      -2.41594057       0.00000000
Si      -1.24322236      -2.76650138      -2.02568786       0.00000000
Si      -1.42156528      -3.36617700       0.32366800       0.00000000
Si      -1.78504405      -0.26609715       3.20425104       0.00000000
Si      -0.05465509       0.98323182      -3.58500645       0.00000000
