10
Lattice="16.28999089631971 0.0 0.0 0.0 16.28999089631971 0.0 0.0 0.0 34.53561885213415" Properties=species:S:1:pos:R:3:initial_magmoms:R:1 pbc="T T T"
Si       1.55738916      -0.14877657       1.75085325       0.00000000
Si      -0.72575208       2.23060599       0.40496489       0.00000000
Si       1.53490896      -0.58937220      -1.72215413       0.00000000
Si      -2.14068519      -1.15119801       0.07597840       0.00000000
Si       0.72589869      -2.79111231      -1.94214615       0.00000000
Si       2.69400762       1.91096361       1.45540086       0.00000000
Si      -3.01843926      -0.37201473       2.13399162       0.00000000
Si      -2.60293023       1.89473877       1.94100647       0.00000000
Si       0.40848804      -0.36751869       3.88049337       0.00000000
Si       1.02164364       3.56988834       1.28362060       0.00000000
