10
Lattice="16.28999089631971 0.0 0.0 0.0 16.28999089631971 0.0 0.0 0.0 34.53561885213415" Properties=species:S:1:pos:R:3:initial_magmoms:R:1 pbc="T T T"
Si       1.41511230      -0.71690661      -1.69494005       0.00000000
Si       1.92977856       0.23276781       1.46393117       0.00000000
Si      -1.06000659      -2.27698362       0.52121185       0.00000000
Si      -1.49273415       1.88216289      -1.02443063       0.00000000
Si      -0.20900070      -1.73356551      -2.96533350       0.00000000
Si       2.43310698       1.07901702      -2.77818488       0.00000000
Si       0.71047206      -3.39978816       1.67314806       0.00000000
Si       1.23859386      -0.41630724       3.68567784       0.00000000
Si      -3.05932716       2.31119262       0.85679465       0.00000000
Si       2.78809866       2.48334534       1.25132978       0.00000000
