10
Lattice="16.28999089631971 0.0 0.0 0.0 16.28999089631971 0.0 0.0 0.0 34.53561885213415" Properties=species:S:1:pos:R:3:initial_magmoms:R:1 pbc="T T T"
Si      -1.45139013      -1.05536394      -1.67960623       0.00000000
Si      -1.56659301       0.42902973       1.88122528       0.00000000
Si       1.49273415      -1.88216289       1.02443063       0.00000000
Si       1.11687498       1.68296877      -1.69293698       0.00000000
Si      -3.41034408      -0.95843844       1.24490615       0.00000000
Si      -2.76853437      -2.64704355      -0.30816150       0.00000000
Si       2.83201650       2.65201200      -0.37312303       0.00000000
Si      -0.12689910      -2.23612830      -3.21751273       0.00000000
Si       2.90784645      -2.59906950      -0.67050941       0.00000000
Si       1.96755507       2.93549058       1.97426429       0.00000000
