10
Lattice="16.28999089631971 0.0 0.0 0.0 16.28999089631971 0.0 0.0 0.0 34.53561885213415" Properties=species:S:1:pos:R:3:initial_magmoms:R:1 pbc="T T T"
Si       2.04895620      -0.09229914      -1.21340965       0.00000000
Si      -1.95753672       0.80396037      -1.09733537       0.00000000
Si      -0.62393958      -2.17614852       0.77719000       0.00000000
Si       0.77568093       1.52453223       1.68547728       0.00000000
Si      -1.49810985      -1.30144068       2.82760537       0.00000000
Si       1.57999968       3.22874316       0.28377934       0.00000000
Si      -2.28361365      -0.55539126      -2.92378713       0.00000000
Si       3.10948407       2.05859988      -1.12976433       0.00000000
Si       1.71694971      -1.08976842      -3.34588170       0.00000000
Si       3.58981101      -1.59627339      -0.18379867       0.00000000
