10
Lattice="16.28999089631971 0.0 0.0 0.0 16.28999089631971 0.0 0.0 0.0 34.53561885213415" Properties=species:S:1:pos:R:3:initial_magmoms:R:1 pbc="T T T"
Si       1.45772042      -1.15603383       1.33614930       0.00000000
Si       1.73008922       0.97715565      -1.30858296       0.00000000
Si      -1.26512978       1.56846636       1.28939496       0.00000000
Si      -0.40489935      -2.09947868      -2.27524725       0.00000000
Si       0.32187737       0.05664522      -3.23281689       0.00000000
Si      -2.33542955      -2.32045253      -0.27799117       0.00000000
Si       0.09807232      -2.50537661       2.66892448       0.00000000
Si       2.80043996      -2.37986216      -0.11494496       0.00000000
Si      -2.62234532       0.21341366       2.66612709       0.00000000
Si       2.81394437       0.21481297       2.66695595       0.00000000
