10
Lattice="16.28999089631971 0.0 0.0 0.0 16.28999089631971 0.0 0.0 0.0 34.53561885213415" Properties=species:S:1:pos:R:3:initial_magmoms:R:1 pbc="T T T"
Si      -1.35641943      -1.35742941       1.35738872       0.00000000
Si       1.35749457      -1.35703845      -1.35752686       0.00000000
Si      -1.35751086       1.35710361      -1.35766501       0.00000000
Si       1.35816246       1.35685926       1.35749233       0.00000000
Si       2.71401174       0.00006516      -2.71467384       0.00000000
Si       0.00325800      -2.71502172       2.71412127       0.00000000
Si      -2.71598283      -0.00118917      -2.71349963       0.00000000
Si      -2.71500543      -2.71451673       0.00027629       0.00000000
Si       2.71497285      -2.71490769       0.00041443       0.00000000
Si      -0.00043983      -2.71546155      -2.71446662       0.00000000
