10
Lattice="16.28999089631971 0.0 0.0 0.0 16.28999089631971 0.0 0.0 0.0 34.53561885213415" Properties=species:S:1:pos:R:3:initial_magmoms:R:1 pbc="T T T"
Si       1.35830907      -1.35601218      -1.36132578       0.00000000
Si      -1.35891180       1.35847197      -1.36118764       0.00000000
Si      -1.34464176      -1.36153449       1.38574248       0.00000000
Si       1.35602847       1.35550719       1.38784915       0.00000000
Si      -2.71575477      -2.71098180       0.00006907       0.00000000
Si      -0.00027693      -2.71309950      -2.71843822       0.00000000
Si       2.71798650      -2.71360449      -0.00459324       0.00000000
Si       2.71363707       2.71829042       0.00072525       0.00000000
Si       2.71472850       0.00141723      -2.71871451       0.00000000
Si      -2.71554300       0.00198738      -2.71861090       0.00000000
