10
Lattice="16.28999089631971 0.0 0.0 0.0 16.28999089631971 0.0 0.0 0.0 34.53561885213415" Properties=species:S:1:pos:R:3:initial_magmoms:R:1 pbc="T T T"
Si      -1.35602847      -1.35550719      -1.38784915       0.00000000
Si       1.35760860       1.36278323      -1.38712391       0.00000000
Si      -1.36563957       1.40110422       1.47632946       0.00000000
Si       1.25336889      -1.51410663       1.49221585       0.00000000
Si       2.70112635      -2.71634121      -0.02009974       0.00000000
Si      -2.70067023      -2.71704168      -0.00210667       0.00000000
Si      -2.70871749       2.71303338      -0.02745583       0.00000000
Si       2.71306692       2.71980839      -0.01398693       0.00000000
Si       0.00228060      -2.71151937      -2.74917494       0.00000000
Si      -2.71494027       0.00296478      -2.74903680       0.00000000
