10
Lattice="16.28999089631971 0.0 0.0 0.0 16.28999089631971 0.0 0.0 0.0 34.53561885213415" Properties=species:S:1:pos:R:3:initial_magmoms:R:1 pbc="T T T"
Si       1.52476029       0.52124742      -1.66983264       0.00000000
Si      -2.02781178      -1.08499545      -0.45749360       0.00000000
Si      -0.69548526       2.18955423       0.63182950       0.00000000
Si       1.71602118      -0.92318688       1.39869335       0.00000000
Si       1.43236341       2.68231859       1.43457587       0.00000000
Si      -3.20686569      -0.43895034       1.54930326       0.00000000
Si       2.69255781       2.37489371      -0.56006444       0.00000000
Si       0.20803959       1.02138041      -3.51956142       0.00000000
Si       2.23503687       0.94996017       2.80249796       0.00000000
Si      -2.64839562       1.83314206       2.03774079       0.00000000
