10
Lattice="16.28999089631971 0.0 0.0 0.0 16.28999089631971 0.0 0.0 0.0 34.53561885213415" Properties=species:S:1:pos:R:3:initial_magmoms:R:1 pbc="T T T"
Si      -1.10605842      -2.09512206      -0.43994949       0.00000000
Si      -1.55849688       1.77910325       0.52798084       0.00000000
Si       0.55491885      -0.48048984       2.33975495       0.00000000
Si       1.55427777       0.27656415      -2.05542304       0.00000000
Si      -0.32436648       3.78661769       0.58589710       0.00000000
Si       0.23094333      -3.30079383      -2.05752971       0.00000000
Si       1.03526208      -1.59658290      -3.45922766       0.00000000
Si       0.75160431       2.00892257      -3.42334513       0.00000000
Si      -1.44801810      -3.51306882       1.44528192       0.00000000
Si      -1.36014984      -1.20656772       3.69644402       0.00000000
