10
Lattice="16.28999089631971 0.0 0.0 0.0 16.28999089631971 0.0 0.0 0.0 34.53561885213415" Properties=species:S:1:pos:R:3:initial_magmoms:R:1 pbc="T T T"
Si      -1.33336908      -1.34615096      -1.38503105       0.00000000
Si      -1.35198855       1.35593236       1.35925365       0.00000000
Si       1.36398855      -1.35825998       1.35832118       0.00000000
Si       1.35721554       1.35505270      -1.37673213       0.00000000
Si       2.62234532      -0.21341366      -2.66612709       0.00000000
Si      -2.70526401       2.71222147       0.00217575       0.00000000
Si      -2.71008585      -0.00093667       2.71577898       0.00000000
Si       0.00451233       2.71367128       2.71629701       0.00000000
Si      -2.71257822      -2.71865995      -0.00379892       0.00000000
Si       0.00532683      -2.71716127       2.71512280       0.00000000
