10
Lattice="16.28999089631971 0.0 0.0 0.0 16.28999089631971 0.0 0.0 0.0 34.53561885213415" Properties=species:S:1:pos:R:3:initial_magmoms:R:1 pbc="T T T"
Si       1.35687555       1.35774638       1.35718151       0.00000000
Si       1.35716877      -1.35735583      -1.35759594       0.00000000
Si      -1.35738054      -1.35773050       1.35756140       0.00000000
Si      -1.35824391       1.35886876      -1.35693976       0.00000000
Si       0.00195480      -2.71432912       2.71308520       0.00000000
Si       2.71393068      -2.71406848       0.00069071       0.00000000
Si      -0.00153126      -2.71452460      -2.71460477       0.00000000
Si      -0.00014661       2.71573779      -2.71346509       0.00000000
Si      -2.71554300      -2.71458976       0.00006907       0.00000000
Si       2.71512167       2.71510248       0.00006907       0.00000000
