10
Lattice="16.28999089631971 0.0 0.0 0.0 16.28999089631971 0.0 0.0 0.0 34.53561885213415" Properties=species:S:1:pos:R:3:initial_magmoms:R:1 pbc="T T T"
Si      -1.35687555      -1.35774638      -1.35718151       0.00000000
Si      -1.35526284       1.35525470       1.36129125       0.00000000
Si       1.35824612       1.35735611      -1.35711244       0.00000000
Si       1.35767376      -1.35808005       1.36212010       0.00000000
Si       2.71443432       2.71445972       0.00120875       0.00000000
Si       2.71524393       0.00016942      -2.71391405       0.00000000
Si      -2.71511946       0.00112238      -2.71412127       0.00000000
Si      -0.00052128       2.71573034      -2.71360323       0.00000000
Si       2.71489533      -2.71456464       0.00013814       0.00000000
Si      -2.71425609      -2.71547688       0.00037989       0.00000000
