10
Lattice="16.28999089631971 0.0 0.0 0.0 16.28999089631971 0.0 0.0 0.0 34.53561885213415" Properties=species:S:1:pos:R:3:initial_magmoms:R:1 pbc="T T T"
Si       0.34994178      -2.05541423      -1.09816422       0.00000000
Si       1.08944262       1.45811790      -1.50837853       0.00000000
Si      -2.31889779       0.23915349      -0.44668394       0.00000000
Si       1.03257423      -0.06346584       2.15585268       0.00000000
Si       3.25544151       0.74585394      -0.93190966       0.00000000
Si      -0.75706146       1.30984632       3.18214824       0.00000000
Si      -1.03337244      -1.41878569      -3.06565953       0.00000000
Si       3.02589261       1.12974408       1.45060041       0.00000000
Si      -3.04767981      -1.95677828       0.05325395       0.00000000
Si      -1.27347075      -3.47161796      -0.22700275       0.00000000
