10
Lattice="16.28999089631971 0.0 0.0 0.0 16.28999089631971 0.0 0.0 0.0 34.53561885213415" Properties=species:S:1:pos:R:3:initial_magmoms:R:1 pbc="T T T"
Si      -0.58639113       1.39134519       1.80262217       0.00000000
Si      -2.26062846      -0.48355236      -0.57270449       0.00000000
Si      -0.26632521      -1.36423863       2.02403015       0.00000000
Si       1.78963569      -1.37331216      -1.02629556       0.00000000
Si       0.88001838       2.59199964      -2.05034630       0.00000000
Si       0.75706146      -1.30984632      -3.18214824       0.00000000
Si      -1.43412273      -3.21788492       0.91426195       0.00000000
Si       2.96794026       1.91643705      -0.94147603       0.00000000
Si      -2.68257204       0.69906906      -2.55266716       0.00000000
Si      -2.93353578       2.06351946       1.47042387       0.00000000
