10
Lattice="16.28999089631971 0.0 0.0 0.0 16.28999089631971 0.0 0.0 0.0 34.53561885213415" Properties=species:S:1:pos:R:3:initial_magmoms:R:1 pbc="T T T"
Si       1.25620335      -2.02982752       0.15333823       0.00000000
Si      -2.38938462      -0.34452047      -0.01868378       0.00000000
Si       0.17834292       0.59967562      -2.34935586       0.00000000
Si       1.12956489       1.73582493       1.45919978       0.00000000
Si       1.42156528       3.36617700      -0.32366800       0.00000000
Si       0.84831804      -3.04226731      -2.01118289       0.00000000
Si      -3.19205808       1.38783795      -1.38660587       0.00000000
Si       1.41065342      -1.15948540      -3.31766608       0.00000000
Si       3.54047579      -1.43999920      -0.24033351       0.00000000
Si       1.65221066       2.43442158      -2.49368029       0.00000000
