10
Lattice="16.28999089631971 0.0 0.0 0.0 16.28999089631971 0.0 0.0 0.0 34.53561885213415" Properties=species:S:1:pos:R:3:initial_magmoms:R:1 pbc="T T T"
Si       1.23231050      -1.75916103      -0.96831022       0.00000000
Si       1.47386774       1.83474596      -0.14432443       0.00000000
Si      -2.11020660       0.48073745      -1.03189033       0.00000000
Si      -0.17834292      -0.59967562       2.34935586       0.00000000
Si      -3.37040100       0.78816233       0.96274998       0.00000000
Si      -2.56772754      -0.94419609       2.33067208       0.00000000
Si       1.24322236       2.76650138       2.02568786       0.00000000
Si       3.42484937      -1.35906234      -0.19733664       0.00000000
Si       0.40387797      -1.77952353      -3.20798089       0.00000000
Si       0.66997512      -3.64194294       0.33817297       0.00000000
