10
Lattice="16.28999089631971 0.0 0.0 0.0 16.28999089631971 0.0 0.0 0.0 34.53561885213415" Properties=species:S:1:pos:R:3:initial_magmoms:R:1 pbc="T T T"
Si      -0.69807537       1.15061157       1.87069191       0.00000000
Si       2.32108784       0.57510216       0.11044497       0.00000000
Si      -0.71851932       1.80998190      -1.62279510       0.00000000
Si      -0.80275491      -2.17903185       1.20311803       0.00000000
Si      -1.46090349      -0.07356564      -2.85896373       0.00000000
Si       1.87513117       2.86124076      -0.46170695       0.00000000
Si       2.99916072      -1.39572720      -1.21827917       0.00000000
Si      -3.19456674      -0.86436369      -1.28489842       0.00000000
Si      -2.96952039       1.05275754       1.66399612       0.00000000
Si       0.29590785       3.36111570       1.52557728       0.00000000
