10
Lattice="16.28999089631971 0.0 0.0 0.0 16.28999089631971 0.0 0.0 0.0 34.53561885213415" Properties=species:S:1:pos:R:3:initial_magmoms:R:1 pbc="T T T"
Si      -0.74238417      -1.88354754      -1.23616863       0.00000000
Si       1.93603392       0.74907936      -1.20329070       0.00000000
Si      -1.54636083       1.92565719      -0.08129689       0.00000000
Si       0.71851932      -1.80998190       1.62279510       0.00000000
Si       2.59365049       1.05125886       1.16108815       0.00000000
Si      -1.86929379      -0.43473123      -2.66052196       0.00000000
Si       0.02044395      -0.65937033       3.49348701       0.00000000
Si      -3.17047383       0.90899829      -1.35169034       0.00000000
Si       0.84346362       2.31259356      -2.60716440       0.00000000
Si       1.01442717       1.55113380       3.14837238       0.00000000
