10
Lattice="16.28999089631971 0.0 0.0 0.0 16.28999089631971 0.0 0.0 0.0 34.53561885213415" Properties=species:S:1:pos:R:3:initial_magmoms:R:1 pbc="T T T"
Si       0.81501381      -2.09653929      -0.79007179       0.00000000
Si       1.07913987       1.96639848      -0.82850996       0.00000000
Si       0.06450840      -0.01167993       2.43807791       0.00000000
Si      -2.08792188       0.67556259      -1.10887027       0.00000000
Si      -1.17830457      -3.28974921      -0.08481953       0.00000000
Si      -2.12920074       2.81655729      -0.12073659       0.00000000
Si      -1.20098025       0.55982214      -3.29490709       0.00000000
Si      -0.02378340       3.52549809       0.52411284       0.00000000
Si      -2.96794026      -1.91643705       0.94147603       0.00000000
Si       0.63856053       2.04120216      -3.10354512       0.00000000
