10
Lattice="16.28999089631971 0.0 0.0 0.0 16.28999089631971 0.0 0.0 0.0 34.53561885213415" Properties=species:S:1:pos:R:3:initial_magmoms:R:1 pbc="T T T"
Si       2.03602408      -1.10156238       0.21450085       0.00000000
Si       0.07278372       0.74388285      -2.20143972       0.00000000
Si      -2.11960593      -1.00804149       0.08948184       0.00000000
Si      -1.63325169      -0.51313500       2.31388776       0.00000000
Si      -1.63747080      -0.63174249      -3.06448532       0.00000000
Si       3.45830577       0.83346156       0.06471979       0.00000000
Si      -1.19773854       2.70355356      -2.02886513       0.00000000
Si       2.26666946      -2.03331780      -1.95551144       0.00000000
Si       0.25098003      -1.36765953       3.41875189       0.00000000
Si      -2.82551679       2.54076759      -0.21912862       0.00000000
