10
Lattice="16.28999089631971 0.0 0.0 0.0 16.28999089631971 0.0 0.0 0.0 34.53561885213415" Properties=species:S:1:pos:R:3:initial_magmoms:R:1 pbc="T T T"
Si      -1.35205371      -1.34338743       1.37436990       0.00000000
Si       1.35951453       1.37412666       1.36749730       0.00000000
Si      -1.40116806       1.34706897      -1.35586915       0.00000000
Si       1.26330579      -1.45569069      -1.44267448       0.00000000
Si       2.48080410       0.19992717      -2.78169857       0.00000000
Si      -2.70073539      -2.70770751       0.01190789       0.00000000
Si       2.72039742      -2.70467757      -0.00519761       0.00000000
Si       0.00280188      -2.70283680       2.73079162       0.00000000
Si      -2.71160082       0.01283652       2.73054987       0.00000000
Si       2.71944280       0.01301571       2.73106790       0.00000000
