10
Lattice="16.28999089631971 0.0 0.0 0.0 16.28999089631971 0.0 0.0 0.0 34.53561885213415" Properties=species:S:1:pos:R:3:initial_magmoms:R:1 pbc="T T T"
Si      -1.35180936      -1.37248137       1.32468347       0.00000000
Si       1.35765747      -1.35711990      -1.35980622       0.00000000
Si      -1.35967743       1.35632169      -1.36018611       0.00000000
Si       1.36094805       1.37484342       1.37804103       0.00000000
Si       2.45351835      -0.18867078       2.78191472       0.00000000
Si      -2.65298940      -0.02875185       2.63351509       0.00000000
Si      -2.71125873       2.71494027      -0.00317728       0.00000000
Si       2.71541268      -2.71090035      -0.00158864       0.00000000
Si      -2.71652040      -2.71362078      -0.00666538       0.00000000
Si       2.71781525       2.71264338      -0.00051803       0.00000000
