10
Lattice="16.28999089631971 0.0 0.0 0.0 16.28999089631971 0.0 0.0 0.0 34.53561885213415" Properties=species:S:1:pos:R:3:initial_magmoms:R:1 pbc="T T T"
Si      -0.88189173      -0.44116578      -2.16921797       0.00000000
Si       0.85617864      -2.22646833       0.25874100       0.00000000
Si       1.42288167       1.95204699      -0.28274327       0.00000000
Si      -1.88358012       0.23879511       1.54004771       0.00000000
Si      -3.61919817       0.23395698      -0.01826935       0.00000000
Si       1.29675798      -2.30127201       2.53377616       0.00000000
Si      -1.87587495      -2.65166991      -1.82410334       0.00000000
Si      -2.92801347       0.88303203      -2.24001603       0.00000000
Si      -0.98336214      -3.70784835       0.06737903       0.00000000
Si       0.19383471      -0.74217240       3.88639897       0.00000000
