10
Lattice="16.28999089631971 0.0 0.0 0.0 16.28999089631971 0.0 0.0 0.0 34.53561885213415" Properties=species:S:1:pos:R:3:initial_magmoms:R:1 pbc="T T T"
Si      -1.43505126       1.22188032       1.35915004       0.00000000
Si      -1.35725022      -1.34480466      -1.34923831       0.00000000
Si       1.35534429       1.36919079      -1.34302190       0.00000000
Si       1.17507915      -1.37072205       1.50841307       0.00000000
Si       0.36501003       2.28724047       2.48228353       0.00000000
Si       2.18563323       0.42977907       2.75376818       0.00000000
Si      -0.69370965      -2.18800764       2.88217168       0.00000000
Si      -2.46493764      -0.53603874       2.85633902       0.00000000
Si       2.70242208      -2.70277164       0.04762465       0.00000000
Si      -0.00394218      -2.70348840      -2.70438222       0.00000000
