10
Lattice="16.28999089631971 0.0 0.0 0.0 16.28999089631971 0.0 0.0 0.0 34.53561885213415" Properties=species:S:1:pos:R:3:initial_magmoms:R:1 pbc="T T T"
Si      -0.67740336      -1.80318897      -1.40646386       0.00000000
Si      -1.77122799       1.65196890      -0.02583266       0.00000000
Si       1.86878880       0.81728559      -1.37375861       0.00000000
Si      -0.32241168      -0.39886065       2.62305079       0.00000000
Si      -2.03861205      -0.51930891      -2.85796220       0.00000000
Si       0.69370965       2.18800764      -2.88217168       0.00000000
Si      -3.48636951       0.68292567      -1.34564660       0.00000000
Si      -0.74134161       3.40988796      -1.52302164       0.00000000
Si       2.87934288       2.61778671      -0.12840350       0.00000000
Si      -1.69539804      -3.59911260      -0.32321904       0.00000000
