10
Lattice="16.28999089631971 0.0 0.0 0.0 16.28999089631971 0.0 0.0 0.0 34.53561885213415" Properties=species:S:1:pos:R:3:initial_magmoms:R:1 pbc="T T T"
Si       0.07798023       1.29899718      -1.96245310       0.00000000
Si       1.13580396      -2.06192304       0.27338411       0.00000000
Si       0.80340651       1.27228158       1.84872725       0.00000000
Si      -2.18610171      -0.96850566      -0.48094330       0.00000000
Si      -0.51152229      -2.90036934       1.79982478       0.00000000
Si      -1.68783948      -1.92555945      -2.61303545       0.00000000
Si      -1.69622883       2.81383686      -1.68219640       0.00000000
Si      -0.49220235      -0.18785628      -3.68629948       0.00000000
Si      -0.83973321       2.86257654       2.36095983       0.00000000
Si       2.84214888       2.45596185       1.29463747       0.00000000
