10
Lattice="16.28999089631971 0.0 0.0 0.0 16.28999089631971 0.0 0.0 0.0 34.53561885213415" Properties=species:S:1:pos:R:3:initial_magmoms:R:1 pbc="T T T"
Si       1.38753333      -1.80204867      -0.56196390       0.00000000
Si       0.61592490       1.37855754       1.79170891       0.00000000
Si      -2.20784397      -0.65748069       0.52311131       0.00000000
Si      -0.64554012       1.75391172      -1.44787209       0.00000000
Si      -2.79615569       1.45718937      -0.37339932       0.00000000
Si       1.60534692       3.11238369       0.63365989       0.00000000
Si      -0.66171609       0.76561371      -3.56915460       0.00000000
Si       2.50044984      -1.20117573      -2.55194191       0.00000000
Si      -2.32038344      -1.08600543       2.87605887       0.00000000
Si       0.03191211      -3.77805825      -0.87744696       0.00000000
