10
Lattice="16.28999089631971 0.0 0.0 0.0 16.28999089631971 0.0 0.0 0.0 34.53561885213415" Properties=species:S:1:pos:R:3:initial_magmoms:R:1 pbc="T T T"
Si       0.11253947       0.42852474      -2.35294756       0.00000000
Si      -1.42228169      -1.93502394       0.14978106       0.00000000
Si      -0.76512827       2.28625263       0.04227162       0.00000000
Si       2.01642833      -1.07518887       0.77522147       0.00000000
Si      -3.45830577      -0.83346156      -0.06471979       0.00000000
Si       1.28298737       3.43106496       0.23235577       0.00000000
Si      -1.19163631      -2.86677936      -2.02023123       0.00000000
Si       2.32038344       1.08600543      -2.87605887       0.00000000
Si      -1.47693678      -0.95179212      -3.43522539       0.00000000
Si       2.93630834       2.46456297      -1.08434997       0.00000000
