10
Lattice="16.28999089631971 0.0 0.0 0.0 16.28999089631971 0.0 0.0 0.0 34.53561885213415" Properties=species:S:1:pos:R:3:initial_magmoms:R:1 pbc="T T T"
Si      -1.34863281      -1.44438543      -1.35887518       0.00000000
Si       1.44920727      -1.25133264       1.50349865       0.00000000
Si      -1.25002944       1.45904643       1.51555158       0.00000000
Si       1.77148863       1.14202674      -1.34644235       0.00000000
Si      -2.56183219       0.28110024      -2.64626016       0.00000000
Si      -2.58918473       2.83226085       0.12679760       0.00000000
Si       0.10215459      -2.60167590       2.88964519       0.00000000
Si      -2.61578630       0.11171682       2.89116476       0.00000000
Si       2.79106344      -2.73088818       0.01971985       0.00000000
Si       0.16395885      -2.78827785      -2.74693154       0.00000000
