10
Lattice="16.28999089631971 0.0 0.0 0.0 16.28999089631971 0.0 0.0 0.0 34.53561885213415" Properties=species:S:1:pos:R:3:initial_magmoms:R:1 pbc="T T T"
Si       1.35686252      -1.35650088       1.36039332       0.00000000
Si      -1.35714992       1.35796698       1.36066961       0.00000000
Si       1.36575686       1.34732961      -1.37561318       0.00000000
Si      -1.35619530      -1.35972630      -1.37559591       0.00000000
Si      -2.71497678      -2.71324611       0.00334996       0.00000000
Si      -0.00049522      -2.71365336       2.71740215       0.00000000
Si       2.71794089      -2.71339272      -0.00151957       0.00000000
Si       2.71391726       2.71753038      -0.00024175       0.00000000
Si       2.71471547       0.00117288       2.71691865       0.00000000
Si      -2.71561209       0.00086337       2.71750576       0.00000000
