10
Lattice="16.28999089631971 0.0 0.0 0.0 16.28999089631971 0.0 0.0 0.0 34.53561885213415" Properties=species:S:1:pos:R:3:initial_magmoms:R:1 pbc="T T T"
Si       1.35713940      -1.35716877      -1.35721604       0.00000000
Si       1.35615386       1.35777150       1.35797583       0.00000000
Si      -1.35797747       1.35734796      -1.35711244       0.00000000
Si      -1.35794489      -1.35734796       1.35749233       0.00000000
Si      -0.00018968      -2.71112841       2.71570991       0.00000000
Si       0.00048470       2.71445157      -2.71394859       0.00000000
Si       2.71449713      -0.00001629      -2.71422487       0.00000000
Si       0.00221288       2.71241532       2.71678051       0.00000000
Si      -0.00167207      -2.71510317      -2.71446662       0.00000000
Si       2.71464374      -2.71497285       0.00024175       0.00000000
