10
Lattice="16.28999089631971 0.0 0.0 0.0 16.28999089631971 0.0 0.0 0.0 34.53561885213415" Properties=species:S:1:pos:R:3:initial_magmoms:R:1 pbc="T T T"
Si       1.35624024       1.35658233       1.35676708       0.00000000
Si      -1.35719321       1.35782037      -1.35787222       0.00000000
Si      -1.35862021      -1.35715248       1.35735419       0.00000000
Si       1.35757602      -1.35726651      -1.35832118       0.00000000
Si      -2.71256118      -0.00250866       2.71615887       0.00000000
Si      -2.71428937      -0.00047241      -2.71457023       0.00000000
Si       2.71487511      -2.71458189      -0.00027629       0.00000000
Si      -0.00055386      -2.71195920       2.71764390       0.00000000
Si      -2.71477406      -2.71492398      -0.00062164       0.00000000
Si      -0.00027693      -2.71494027      -2.71484652       0.00000000
