10
Lattice="16.28999089631971 0.0 0.0 0.0 16.28999089631971 0.0 0.0 0.0 34.53561885213415" Properties=species:S:1:pos:R:3:initial_magmoms:R:1 pbc="T T T"
Si      -1.35806635       1.35480672      -1.36028972       0.00000000
Si       1.35866745      -1.36187658      -1.35870108       0.00000000
Si       1.34866539       1.36547667       1.36622985       0.00000000
Si      -1.36722296      -1.37634210       1.38470641       0.00000000
Si       2.58750360       0.00653229       2.78757857       0.00000000
Si      -2.71200732       2.70945054      -0.00148503       0.00000000
Si      -2.71440989      -2.71409319      -0.00255564       0.00000000
Si       2.71516833       2.71437012       0.00051803       0.00000000
Si       0.00055386       2.71195920      -2.71764390       0.00000000
Si      -2.71422020      -0.00296478      -2.71826554       0.00000000
