10
Lattice="16.28999089631971 0.0 0.0 0.0 16.28999089631971 0.0 0.0 0.0 34.53561885213415" Properties=species:S:1:pos:R:3:initial_magmoms:R:1 pbc="T T T"
Si      -1.37588109      -0.02653641       1.86879245       0.00000000
Si      -1.14813712       0.49710564      -1.98396880       0.00000000
Si       0.53618535      -2.29500036       0.18818469       0.00000000
Si       1.28633985       1.91001879       0.56918185       0.00000000
Si       1.39243662      -1.95134652       2.36807417       0.00000000
Si      -1.51193029      -3.43981269      -0.00189946       0.00000000
Si      -2.43819665      -2.23849035       1.85946783       0.00000000
Si      -0.05017320       3.82272543       0.18894448       0.00000000
Si       2.89588959       2.24720550      -1.15117643       0.00000000
Si      -2.74233095       2.22045732      -1.58190491       0.00000000
