10
Lattice="16.28999089631971 0.0 0.0 0.0 16.28999089631971 0.0 0.0 0.0 34.53561885213415" Properties=species:S:1:pos:R:3:initial_magmoms:R:1 pbc="T T T"
Si      -0.85625127      -0.34365384      -2.17988948       0.00000000
Si       1.59443262       1.73798010       0.37757813       0.00000000
Si       1.85925915      -1.50045561       0.02092860       0.00000000
Si      -2.18491417       0.02438613       1.25564673       0.00000000
Si      -0.97171479      -1.70109954       2.54303172       0.00000000
Si       0.54087687      -3.04499196       1.15497535       0.00000000
Si      -1.39243662       1.95134652      -2.36807417       0.00000000
Si      -2.76831771       1.92481011      -0.49928172       0.00000000
Si       2.14840665       0.88531263       2.55546455       0.00000000
Si       0.79706970      -1.31015583      -3.49659522       0.00000000
