10
Lattice="16.28999089631971 0.0 0.0 0.0 16.28999089631971 0.0 0.0 0.0 34.53561885213415" Properties=species:S:1:pos:R:3:initial_magmoms:R:1 pbc="T T T"
Si      -1.34271954       1.22382833       1.45109427       0.00000000
Si      -1.42105815      -1.22080518      -1.43018436       0.00000000
Si       0.84833433       1.84132779      -1.32022289       0.00000000
Si       1.35997065      -1.47473370       1.40559011       0.00000000
Si       2.64469779       2.45149417       0.03426281       0.00000000
Si      -2.80043996       2.37986216       0.11494496       0.00000000
Si       0.11386710      -1.51143507      -3.38448705       0.00000000
Si      -1.07035074       3.35701781      -1.19363799       0.00000000
Si       0.01350441       2.59467513       2.78190091       0.00000000
Si      -3.20533932       0.28038348      -2.16030229       0.00000000
