10
Lattice="16.28999089631971 0.0 0.0 0.0 16.28999089631971 0.0 0.0 0.0 34.35334932831803" Properties=species:S:1:pos:R:3:initial_magmoms:R:1 pbc="T T T"
Si       1.60688958       0.63377874      -1.62268136       0.00000000
Si       1.70875095      -0.37752075       1.77696234       0.00000000
Si      -2.14504669       0.47628702      -1.34555274       0.00000000
Si       0.15514922      -2.57028507      -0.39406749       0.00000000
Si       2.52621573      -2.06000082       0.32453627       0.00000000
Si      -1.47784087      -2.64069045       1.54651994       0.00000000
Si       0.24296372      -1.64190168       3.17889381       0.00000000
Si      -0.55547108       3.51016661      -0.61612766       0.00000000
Si       1.69280304       2.95755768      -1.69228129       0.00000000
Si       0.78043272      -0.00770517      -3.73458905       0.00000000
