10
Lattice="16.28999089631971 0.0 0.0 0.0 16.28999089631971 0.0 0.0 0.0 34.35334932831803" Properties=species:S:1:pos:R:3:initial_magmoms:R:1 pbc="T T T"
Si       2.23066626      -0.28200922       0.77923746       0.00000000
Si      -0.96183034       1.28975912       1.78108474       0.00000000
Si      -1.33409791      -2.07248778       0.17987424       0.00000000
Si       0.88389051       1.02529097      -2.07978728       0.00000000
Si      -0.96204993      -0.26036959      -2.58773619       0.00000000
Si       3.00704766      -2.08380933      -0.50602512       0.00000000
Si       0.08708471       0.47552953       3.74778074       0.00000000
Si       2.04608427      -0.71202843       3.10860196       0.00000000
Si       1.12853373       3.33136853      -1.53714147       0.00000000
Si      -0.62532097      -3.23231949       2.18336269       0.00000000
