10
Lattice="16.28999089631971 0.0 0.0 0.0 16.28999089631971 0.0 0.0 0.0 34.35334932831803" Properties=species:S:1:pos:R:3:initial_magmoms:R:1 pbc="T T T"
Si      -1.39817070      -1.77568560       0.67459710       0.00000000
Si       1.85600115      -0.17087558       1.47503058       0.00000000
Si      -1.45596762       1.89357892       0.22285030       0.00000000
Si       0.28510758      -1.05257509      -2.13866896       0.00000000
Si       0.39830679      -0.72191090       3.21925416       0.00000000
Si       2.44506384      -0.51223253      -2.81165145       0.00000000
Si      -3.38481765      -1.54453050      -0.69792303       0.00000000
Si      -1.24840044      -0.15096595      -3.66031706       0.00000000
Si       2.36314143      -2.50787223       1.76940460       0.00000000
Si      -0.22014306       3.89561992       0.72774176       0.00000000
