10
Lattice="16.28999089631971 0.0 0.0 0.0 16.28999089631971 0.0 0.0 0.0 34.35334932831803" Properties=species:S:1:pos:R:3:initial_magmoms:R:1 pbc="T T T"
Si       1.16230779      -1.44399447       1.38235894       0.00000000
Si       1.34195391       1.38596949      -1.34859786       0.00000000
Si      -1.22554557      -1.17082746      -1.69707843       0.00000000
Si      -1.55326779       1.28557422       1.36827406       0.00000000
Si      -1.49503104       0.98494227      -2.75629584       0.00000000
Si      -0.63770463       2.90978496      -1.46509013       0.00000000
Si       2.50856226      -0.06377535       2.73751001       0.00000000
Si       2.56297086      -2.75905685      -0.04300011       0.00000000
Si      -2.78431775      -2.56109262      -0.11793511       0.00000000
Si      -0.20461869       2.64443715       2.73785354       0.00000000
