10
Lattice="16.28999089631971 0.0 0.0 0.0 16.28999089631971 0.0 0.0 0.0 34.35334932831803" Properties=species:S:1:pos:R:3:initial_magmoms:R:1 pbc="T T T"
Si       1.35570267       1.35601218      -1.35778254       0.00000000
Si       1.35791811      -1.35705474       1.35702676       0.00000000
Si      -1.35785295      -1.35788553      -1.35651146       0.00000000
Si      -1.35739683       1.35819504       1.35723288       0.00000000
Si      -2.71174743      -0.00456120      -2.71446577       0.00000000
Si       0.00143352      -2.71277370      -2.71480930       0.00000000
Si       2.71360449       0.00009774       2.71408788       0.00000000
Si      -2.71461447       0.00262269       2.71343517       0.00000000
Si      -2.71474479      -2.71401174       0.00006871       0.00000000
Si      -0.00003258      -2.71438641       2.71446577       0.00000000
