10
Lattice="16.28999089631971 0.0 0.0 0.0 16.28999089631971 0.0 0.0 0.0 34.35334932831803" Properties=species:S:1:pos:R:3:initial_magmoms:R:1 pbc="T T T"
Si       1.35721764       1.35557235      -1.35620228       0.00000000
Si      -1.35873261       1.35290079       1.35795430       0.00000000
Si      -1.35793440      -1.35900954      -1.35579004       0.00000000
Si       1.35764118      -1.35883035       1.36527157       0.00000000
Si      -0.00061902       2.71318095      -2.71364129       0.00000000
Si      -2.71527259       2.71161711       0.00041224       0.00000000
Si      -2.70175514      -0.00736308       2.72600850       0.00000000
Si       2.71461447      -0.00262269      -2.71343517       0.00000000
Si      -2.71524652      -0.00208512      -2.71370999       0.00000000
Si       2.71539639       2.71381626       0.00051530       0.00000000
