10
Lattice="16.28999089631971 0.0 0.0 0.0 16.28999089631971 0.0 0.0 0.0 34.35334932831803" Properties=species:S:1:pos:R:3:initial_magmoms:R:1 pbc="T T T"
Si       1.35694071      -1.35817875      -1.36424097       0.00000000
Si      -1.35764118       1.35883035      -1.36527157       0.00000000
Si      -1.36523232      -1.35228177       1.39182673       0.00000000
Si       1.35293337       1.36296801       1.39484982       0.00000000
Si      -2.71637379       2.71173114      -0.00731727       0.00000000
Si       2.71554300       2.71490769      -0.00312616       0.00000000
Si       2.71448415      -2.71637379      -0.00649279       0.00000000
Si      -2.71726974      -2.71524978      -0.00498124       0.00000000
Si      -0.00042354       2.71440270      -2.72147385       0.00000000
Si       2.71489140      -0.00084708      -2.72167997       0.00000000
