10
Lattice="16.28999089631971 0.0 0.0 0.0 16.28999089631971 0.0 0.0 0.0 34.35334932831803" Properties=species:S:1:pos:R:3:initial_magmoms:R:1 pbc="T T T"
Si       0.49422231       0.75743613       2.14447468       0.00000000
Si      -0.96207111      -2.10805632       0.32415839       0.00000000
Si      -0.97195914       1.17708282      -1.83587837       0.00000000
Si       2.04022476       0.22592601      -1.28031569       0.00000000
Si       1.25819073       2.93402448       1.66888664       0.00000000
Si       2.38832577      -0.53877546       2.66372584       0.00000000
Si       0.10111203      -0.03776022      -3.66959247       0.00000000
Si      -3.34072062       0.68475015      -1.45867838       0.00000000
Si       0.70229448      -3.68308592      -0.20052061       0.00000000
Si       3.04179912       2.34391923       0.20591409       0.00000000
