10
Lattice="16.28999089631971 0.0 0.0 0.0 16.28999089631971 0.0 0.0 0.0 34.35334932831803" Properties=species:S:1:pos:R:3:initial_magmoms:R:1 pbc="T T T"
Si      -1.92665088      -1.24735788      -0.26290633       0.00000000
Si       0.23135058       2.21197023       0.76556482       0.00000000
Si       1.01630052      -1.25677350       1.71746231       0.00000000
Si       0.83272851       0.12772989      -2.21617016       0.00000000
Si       2.72683197      -1.16848170      -1.69691899       0.00000000
Si       2.22078312       2.59450830      -0.44511660       0.00000000
Si       3.45890457       0.49010094      -0.20962425       0.00000000
Si      -0.61473573      -0.86545512       3.37339773       0.00000000
Si      -2.32484364      -1.86934266       2.05766371       0.00000000
Si      -1.94144220       3.05966925       0.36747798       0.00000000
