10
Lattice="16.28999089631971 0.0 0.0 0.0 16.28999089631971 0.0 0.0 0.0 34.35334932831803" Properties=species:S:1:pos:R:3:initial_magmoms:R:1 pbc="T T T"
Si       2.09192922      -1.11654918       0.15167012       0.00000000
Si      -0.90709236      -0.64601253       2.09899082       0.00000000
Si      -0.06735915       2.37371364       0.23088899       0.00000000
Si      -0.91685007      -0.55892619      -2.14650153       0.00000000
Si      -2.77843869      -1.64843397       1.10714036       0.00000000
Si       1.07258247      -0.17638812      -3.35718294       0.00000000
Si      -1.76994108       2.64583809       1.85322682       0.00000000
Si       2.05431561       3.06835182       0.99253752       0.00000000
Si       0.46239165      -2.30294988       3.07005749       0.00000000
Si       2.04967296      -3.14965521      -0.99909902       0.00000000
