10
Lattice="16.28999089631971 0.0 0.0 0.0 16.28999089631971 0.0 0.0 0.0 34.35334932831803" Properties=species:S:1:pos:R:3:initial_magmoms:R:1 pbc="T T T"
Si       1.35395964      -1.35928647       1.35915667       0.00000000
Si      -1.35866745       1.35907470       1.35850396       0.00000000
Si       1.35830907       1.34956134      -1.37257853       0.00000000
Si      -1.36793646      -1.35241209      -1.36682778       0.00000000
Si      -0.22123449       2.46464442      -2.74511928       0.00000000
Si       0.12491172      -2.59527393      -2.73708059       0.00000000
Si       2.71233387       2.71668330      -0.00140849       0.00000000
Si       2.71355562       0.00052128       2.71649262       0.00000000
Si       2.71430496      -2.71696023      -0.00054965       0.00000000
Si      -0.00169416       2.71549413       2.71656132       0.00000000
