10
Lattice="16.28999089631971 0.0 0.0 0.0 16.28999089631971 0.0 0.0 0.0 34.35334932831803" Properties=species:S:1:pos:R:3:initial_magmoms:R:1 pbc="T T T"
Si       1.82767284       0.94747527       1.20470393       0.00000000
Si      -1.18074807       1.48952502      -1.52473991       0.00000000
Si       1.51568676      -1.23874047      -1.53085481       0.00000000
Si      -1.74861747      -0.93603969       1.54978351       0.00000000
Si       0.63143298       1.87822071       3.14876105       0.00000000
Si      -2.71617831      -2.54912436       0.01714233       0.00000000
Si      -2.58861132       2.85604425      -0.00089319       0.00000000
Si       2.95313265      -2.47788819      -0.02219228       0.00000000
Si      -2.53895940       0.12352707      -2.92199447       0.00000000
Si       2.80438866       2.71207323      -0.19705092       0.00000000
