10
Lattice="16.28999089631971 0.0 0.0 0.0 16.28999089631971 0.0 0.0 0.0 34.35334932831803" Properties=species:S:1:pos:R:3:initial_magmoms:R:1 pbc="T T T"
Si      -1.49537313      -0.71026029      -1.61845590       0.00000000
Si      -0.39462525       2.22643575       0.55119980       0.00000000
Si      -0.26437041      -0.98578935       2.11469031       0.00000000
Si       2.15511813      -0.47759022      -1.17887019       0.00000000
Si       1.84383252      -0.15126894       2.82570197       0.00000000
Si       3.24627120      -0.19422567       0.94135100       0.00000000
Si      -0.75715920      -2.99320605      -1.72835232       0.00000000
Si       1.77547968       1.31973435      -2.78688267       0.00000000
Si      -0.48656601       0.71759079      -3.51836894       0.00000000
Si       1.55414745      -2.63050920      -2.04694546       0.00000000
