10
Lattice="16.28999089631971 0.0 0.0 0.0 16.28999089631971 0.0 0.0 0.0 34.35334932831803" Properties=species:S:1:pos:R:3:initial_magmoms:R:1 pbc="T T T"
Si       1.20589983      -1.45197657       1.44462442       0.00000000
Si       1.96138116       0.70579683      -1.14250131       0.00000000
Si      -1.35267273      -1.46419407      -1.31308678       0.00000000
Si      -1.49537313       1.29138975       1.41789063       0.00000000
Si       2.62651815       2.65737534       0.03033402       0.00000000
Si       2.57258196      -0.07947891       2.80654997       0.00000000
Si       2.35118457      -3.04461729       0.06359496       0.00000000
Si      -0.14586066       2.63516392       2.80758057       0.00000000
Si       3.48866640      -1.22569218      -1.14557834       0.00000000
Si      -2.81845996      -2.72857500       0.08884468       0.00000000
