10
Lattice="16.28999089631971 0.0 0.0 0.0 16.28999089631971 0.0 0.0 0.0 34.35334932831803" Properties=species:S:1:pos:R:3:initial_magmoms:R:1 pbc="T T T"
Si       1.35171162       1.33498179       1.35881314       0.00000000
Si       1.35492075      -1.35544203      -1.35551522       0.00000000
Si      -1.35910728       1.35713619      -1.35441591       0.00000000
Si      -1.35946566      -1.34851878       1.40027765       0.00000000
Si      -0.10612935       2.61273681       2.68732661       0.00000000
Si       2.62567107      -0.12597057       2.72796664       0.00000000
Si       2.71081890      -2.71101438       0.00687067       0.00000000
Si       2.71293660       0.00092853      -2.71223280       0.00000000
Si      -0.00138465      -2.71386513      -2.71250763       0.00000000
Si      -0.00226431       2.71643596      -2.71188926       0.00000000
