10
Lattice="16.28999089631971 0.0 0.0 0.0 16.28999089631971 0.0 0.0 0.0 34.35334932831803" Properties=species:S:1:pos:R:3:initial_magmoms:R:1 pbc="T T T"
Si       1.35910728      -1.35713619       1.35441591       0.00000000
Si      -1.35780408      -1.35591444      -1.35757642       0.00000000
Si       1.35684297       1.35929977      -1.35747336       0.00000000
Si      -1.35762489       1.35953855       1.35802301       0.00000000
Si       2.71081890      -0.02215440       2.71322905       0.00000000
Si       2.71402803      -2.71257822      -0.00109931       0.00000000
Si      -0.00021177      -2.71344159      -2.71515283       0.00000000
Si       2.71362078       2.71530584       0.00006871       0.00000000
Si      -2.71489140       0.00120546      -2.71504977       0.00000000
Si       2.71547784       0.00146610      -2.71480930       0.00000000
