10
Lattice="16.28999089631971 0.0 0.0 0.0 16.28999089631971 0.0 0.0 0.0 34.35334932831803" Properties=species:S:1:pos:R:3:initial_magmoms:R:1 pbc="T T T"
Si       2.02404879       0.76135129       1.05585078       0.00000000
Si      -0.62654598      -1.99982556      -1.35159893       0.00000000
Si      -1.72972107       1.83309808      -0.05915650       0.00000000
Si       2.03465358       0.59491080      -1.58839670       0.00000000
Si      -1.51508403      -0.28022058       2.24430557       0.00000000
Si      -1.94259879      -0.67456890      -2.88822511       0.00000000
Si       0.77828733       2.06466858      -2.89908077       0.00000000
Si      -3.33827712       0.60488028      -1.40288851       0.00000000
Si      -0.59714253       3.39422417      -1.42786341       0.00000000
Si      -2.08394712       2.00022208       2.39972021       0.00000000
