10
Lattice="16.28999089631971 0.0 0.0 0.0 16.28999089631971 0.0 0.0 0.0 34.35334932831803" Properties=species:S:1:pos:R:3:initial_magmoms:R:1 pbc="T T T"
Si       0.45087462      -0.37309476      -2.26089824       0.00000000
Si      -2.11608729      -0.86400531       0.58129335       0.00000000
Si       1.61399691      -1.08468920       1.35283565       0.00000000
Si       0.14783175       2.33986791      -0.51756785       0.00000000
Si      -1.99666530      -0.07028972       2.77341615       0.00000000
Si      -1.53819954      -0.80444255      -3.38181430       0.00000000
Si      -3.78281493       0.49186515      -0.51822056       0.00000000
Si       0.80958042      -3.29421497       1.82213702       0.00000000
Si       1.80631665       1.46631666      -3.11303355       0.00000000
Si      -1.56269970       2.25157611       2.89681345       0.00000000
