10
Lattice="16.28999089631971 0.0 0.0 0.0 16.28999089631971 0.0 0.0 0.0 34.35334932831803" Properties=species:S:1:pos:R:3:initial_magmoms:R:1 pbc="T T T"
Si      -2.15995626      -0.54034256       0.67298249       0.00000000
Si       0.68232294       2.21749906       0.27293751       0.00000000
Si      -0.08280207      -0.65313289      -2.26924611       0.00000000
Si       1.73074734      -1.29863947       0.95292809       0.00000000
Si      -0.88721856      -2.86265866      -1.79994474       0.00000000
Si       2.92675914       1.96534615      -0.47167175       0.00000000
Si       2.24673309      -0.81380442      -2.68856333       0.00000000
Si      -2.28076290      -2.86772485       0.11123621       0.00000000
Si       2.66849748      -2.33836501      -0.92407126       0.00000000
Si       3.55451058       0.25034146       1.13163431       0.00000000
