10
Lattice="16.28999089631971 0.0 0.0 0.0 16.28999089631971 0.0 0.0 0.0 34.35334932831803" Properties=species:S:1:pos:R:3:initial_magmoms:R:1 pbc="T T T"
Si       1.35283563       1.34136747       1.36515821       0.00000000
Si       1.32040224      -1.36909305      -1.38426211       0.00000000
Si      -1.36091547      -1.37492487       1.36082968       0.00000000
Si      -1.27430154       1.43984052      -1.47200062       0.00000000
Si      -2.19287835      -0.39081339      -2.63551863       0.00000000
Si      -0.57195819      -2.20506327      -2.59704561       0.00000000
Si       2.70938538       2.69856882      -0.00017520       0.00000000
Si      -2.71691136       2.69159670      -0.01119920       0.00000000
Si      -0.00333945       2.69812899       2.72053601       0.00000000
Si       2.70945054      -0.01296684       2.72136049       0.00000000
