10
Lattice="16.28999089631971 0.0 0.0 0.0 16.28999089631971 0.0 0.0 0.0 34.35334932831803" Properties=species:S:1:pos:R:3:initial_magmoms:R:1 pbc="T T T"
Si      -1.35695700       1.35435060      -1.35960327       0.00000000
Si       1.35710361       1.35676152       1.35740465       0.00000000
Si      -1.35814617      -1.35816246       1.35737030       0.00000000
Si       1.35702216      -1.35736425      -1.36083999       0.00000000
Si      -0.00053757       2.71402803       2.71470624       0.00000000
Si      -2.71730232       2.71202436       0.00010306       0.00000000
Si       2.71464705      -2.71474479      -0.00030918       0.00000000
Si      -2.71479366      -2.71487511       0.00027483       0.00000000
Si       2.71340901       2.71630863       0.00092754       0.00000000
Si      -2.71508688      -0.00104256       2.71491236       0.00000000
