10
Lattice="16.28999089631971 0.0 0.0 0.0 16.28999089631971 0.0 0.0 0.0 34.35334932831803" Properties=species:S:1:pos:R:3:initial_magmoms:R:1 pbc="T T T"
Si       0.59795703      -1.35601218       1.81773979       0.00000000
Si      -2.37583134       0.14473665      -0.06296972       0.00000000
Si       0.84825288      -1.30974858      -1.94886660       0.00000000
Si       0.24047298       1.92700926       2.09971224       0.00000000
Si      -0.40361733      -3.47400540       0.33151001       0.00000000
Si      -1.18565136      -0.76590693       3.28071234       0.00000000
Si      -2.78821269       0.67269555       2.29549208       0.00000000
Si      -2.82551679       1.91703978      -1.82911075       0.00000000
Si       1.87623333       0.37519128      -3.40108654       0.00000000
Si       2.76302835       2.14506720      -1.78998227       0.00000000
