10
Lattice="16.28999089631971 0.0 0.0 0.0 16.28999089631971 0.0 0.0 0.0 34.35334932831803" Properties=species:S:1:pos:R:3:initial_magmoms:R:1 pbc="T T T"
Si       1.69187940       0.73143729      -1.62639153       0.00000000
Si      -0.88679502      -1.76987592      -1.61110428       0.00000000
Si      -2.01225483       1.65548754      -0.38420807       0.00000000
Si       0.44707905       1.88129952       2.07284790       0.00000000
Si       1.49358123      -1.38735414       2.41115988       0.00000000
Si       3.17485584       1.93331349      -0.20855930       0.00000000
Si       0.42821523       2.17776123      -3.14075672       0.00000000
Si      -2.32424091      -0.53072820      -3.11976681       0.00000000
Si      -2.76302835      -2.14506720       1.78998227       0.00000000
Si      -1.91477547      -3.45481578      -0.15888433       0.00000000
