10
Lattice="16.28999089631971 0.0 0.0 0.0 16.28999089631971 0.0 0.0 0.0 34.35334932831803" Properties=species:S:1:pos:R:3:initial_magmoms:R:1 pbc="T T T"
Si       1.32261768      -0.01435149       1.94491596       0.00000000
Si      -1.12694220      -1.89071514      -0.88013330       0.00000000
Si       1.65359790       0.88327638      -1.49402800       0.00000000
Si      -1.84974579       1.58948046       0.31790607       0.00000000
Si       0.34806843       2.75286339      -2.04089927       0.00000000
Si      -1.55496195      -0.89691111      -3.11011351       0.00000000
Si      -1.63375668       1.53319851      -2.83776001       0.00000000
Si      -2.99846772      -1.98084771       0.67298249       0.00000000
Si      -0.56360142       3.61828593       0.00906929       0.00000000
Si       1.18711746      -2.44625301       2.61415393       0.00000000
