10
Lattice="16.28999089631971 0.0 0.0 0.0 16.28999089631971 0.0 0.0 0.0 34.35334932831803" Properties=species:S:1:pos:R:3:initial_magmoms:R:1 pbc="T T T"
Si       0.81831186       2.15992368      -0.44590672       0.00000000
Si      -2.14669620       0.54367875       0.79558966       0.00000000
Si       1.53733684      -0.70056774       1.78747447       0.00000000
Si      -0.06045219      -1.51270569      -1.98335738       0.00000000
Si       2.43143630       1.31250159      -1.97628058       0.00000000
Si      -2.01575718      -0.96699069       2.56832654       0.00000000
Si       0.96369671       0.11078829      -3.39112407       0.00000000
Si       0.42585318       3.18467871       1.82382034       0.00000000
Si      -1.84884984       2.59195077       1.92791104       0.00000000
Si       0.88621088      -2.97300645       2.09833810       0.00000000
