10
Lattice="16.28999089631971 0.0 0.0 0.0 16.28999089631971 0.0 0.0 0.0 34.35334932831803" Properties=species:S:1:pos:R:3:initial_magmoms:R:1 pbc="T T T"
Si       0.94267202       0.95604381       1.97542175       0.00000000
Si      -0.58709160      -2.36703474      -0.11669839       0.00000000
Si       1.62096481       0.41361939      -1.85528802       0.00000000
Si      -2.56134186      -0.33420564      -0.72021837       0.00000000
Si      -0.00399105       2.41634457      -2.10627373       0.00000000
Si      -2.85410574       0.20191455       1.70372096       0.00000000
Si       3.01610069      -0.17907597       2.18456506       0.00000000
Si       0.93102532      -1.43314533      -3.40950312       0.00000000
Si      -2.64932415      -2.72775887       0.97443330       0.00000000
Si       0.05646114       3.92905026      -0.12291635       0.00000000
