10
Lattice="16.28999089631971 0.0 0.0 0.0 16.28999089631971 0.0 0.0 0.0 34.35334932831803" Properties=species:S:1:pos:R:3:initial_magmoms:R:1 pbc="T T T"
Si      -1.81985364      -0.11497482      -1.44297889       0.00000000
Si       0.62405361      -2.24324703       0.27678509       0.00000000
Si      -0.76308876       1.34819298       1.78589422       0.00000000
Si       2.03372898       1.03348647      -0.73430325       0.00000000
Si       1.50473078      -0.25070310       3.21777697       0.00000000
Si       0.54938025      -2.30669658       2.69199866       0.00000000
Si      -2.73039948       2.03401827      -1.37815409       0.00000000
Si      -0.26257851       3.54097359       0.94121359       0.00000000
Si       3.74107085      -0.53170560      -0.39427361       0.00000000
Si       2.68973054      -2.57142537      -0.90218816       0.00000000
