10
Lattice="16.28999089631971 0.0 0.0 0.0 16.28999089631971 0.0 0.0 0.0 34.35334932831803" Properties=species:S:1:pos:R:3:initial_magmoms:R:1 pbc="T T T"
Si       1.81985364       0.11497482       1.44297889       0.00000000
Si      -0.91054584       2.14899309       0.06482481       0.00000000
Si       0.71568486      -0.53256897      -2.16773191       0.00000000
Si      -1.89498312      -1.42851897       0.47462614       0.00000000
Si      -2.18465190       2.10380463      -1.88149964       0.00000000
Si      -0.64988955       1.08307323      -3.34220487       0.00000000
Si      -0.15003090      -2.70255987      -2.37271846       0.00000000
Si       2.44390725      -2.12827221       1.71976398       0.00000000
Si      -3.57847317       0.21196548       0.86989600       0.00000000
Si       1.05676488       1.46316780       3.22887311       0.00000000
