10
Lattice="16.28999089631971 0.0 0.0 0.0 16.28999089631971 0.0 0.0 0.0 34.35334932831803" Properties=species:S:1:pos:R:3:initial_magmoms:R:1 pbc="T T T"
Si       0.17529995       0.78470559       2.21476167       0.00000000
Si      -0.65112596      -2.27243871       0.31086363       0.00000000
Si       2.18267104      -0.14884173      -0.96800922       0.00000000
Si      -1.53733684       0.70056774      -1.78747447       0.00000000
Si      -1.94854531      -0.05633082       2.67815426       0.00000000
Si       3.24982894       0.79653213       1.00102281       0.00000000
Si       0.21599074       3.10932117       1.86981950       0.00000000
Si      -3.55309402      -0.26642295       0.78085207       0.00000000
Si       2.25840325      -0.28338084       2.87664802       0.00000000
Si      -0.71902498       2.86049142      -2.23338119       0.00000000
