10
Lattice="16.28999089631971 0.0 0.0 0.0 16.28999089631971 0.0 0.0 0.0 34.35334932831803" Properties=species:S:1:pos:R:3:initial_magmoms:R:1 pbc="T T T"
Si      -2.12317344      -0.93529035       0.49032563       0.00000000
Si       1.19665430      -1.49387445      -1.41769481       0.00000000
Si      -0.31136706       1.98695646      -1.28495340       0.00000000
Si       0.89050492      -0.06310746       2.22853737       0.00000000
Si      -1.28371716      -3.04390053       1.17021315       0.00000000
Si       0.17054001      -3.55967451      -0.80342223       0.00000000
Si       0.87915405       1.47321873      -3.29290779       0.00000000
Si      -1.06028352       0.34003746       3.55114206       0.00000000
Si       0.48905838      -0.83885355      -3.59459907       0.00000000
Si      -3.22721190      -1.04487318      -1.58327805       0.00000000
