10
Lattice="16.28999089631971 0.0 0.0 0.0 16.28999089631971 0.0 0.0 0.0 34.35334932831803" Properties=species:S:1:pos:R:3:initial_magmoms:R:1 pbc="T T T"
Si       0.82621414       1.97623764       0.98522026       0.00000000
Si       0.24318201      -0.72586611      -2.24093894       0.00000000
Si       1.24390114      -1.83651831       0.83815349       0.00000000
Si      -2.35872099       0.03842811       0.44989171       0.00000000
Si      -0.37206555      -3.02247918      -2.24732866       0.00000000
Si       0.77917676       1.71945837       3.32629926       0.00000000
Si      -0.74417022       3.71253987       0.64443484       0.00000000
Si      -3.22443675      -2.13156279       0.24490516       0.00000000
Si       0.67684950      -3.83670877      -0.28063267       0.00000000
Si      -1.41197877       0.06706593      -3.65914905       0.00000000
