10
Lattice="16.28999089631971 0.0 0.0 0.0 16.28999089631971 0.0 0.0 0.0 34.35334932831803" Properties=species:S:1:pos:R:3:initial_magmoms:R:1 pbc="T T T"
Si       0.78322320       0.46118619      -2.16862509       0.00000000
Si       1.09442736      -1.47602061       1.48310363       0.00000000
Si      -2.31211626      -0.46524240       0.17527089       0.00000000
Si       0.08381205       1.94530293       1.35589310       0.00000000
Si       2.95601598      -0.38651283      -1.77053826       0.00000000
Si      -2.35915364      -0.72202167       2.51634989       0.00000000
Si      -0.53726049       3.49721865      -0.30512662       0.00000000
Si       0.90028314       2.78915751      -2.05144575       0.00000000
Si      -1.09851615       1.17972180       3.30692396       0.00000000
Si      -0.65181177      -2.28721374       2.85637953       0.00000000
