10
Lattice="16.28999089631971 0.0 0.0 0.0 16.28999089631971 0.0 0.0 0.0 34.35334932831803" Properties=species:S:1:pos:R:3:initial_magmoms:R:1 pbc="T T T"
Si       1.33959963       1.34899119       1.37824684       0.00000000
Si      -1.37160275      -1.37065689       1.37192582       0.00000000
Si      -1.34729807       1.39209453      -1.41063176       0.00000000
Si       1.54604117      -1.21989294      -1.39898940       0.00000000
Si       0.10486829      -2.60545518      -2.63197989       0.00000000
Si       2.68919192       2.69270442       0.01438719       0.00000000
Si      -2.73002585       2.70156618       0.01243248       0.00000000
Si      -2.69819519      -0.10264329      -2.73345429       0.00000000
Si       2.70315245      -0.00969255       2.73166650       0.00000000
Si      -0.01162575       2.70264132       2.73424300       0.00000000
