10
Lattice="16.28999089631971 0.0 0.0 0.0 16.28999089631971 0.0 0.0 0.0 34.35334932831803" Properties=species:S:1:pos:R:3:initial_magmoms:R:1 pbc="T T T"
Si      -0.04069079      -2.32461558       0.34494217       0.00000000
Si      -1.32747440       0.77592528      -1.83347363       0.00000000
Si       2.29562427      -0.02984328      -0.75890026       0.00000000
Si      -0.93763841       0.89735094       2.06900033       0.00000000
Si      -0.21599074      -3.10932117      -1.86981950       0.00000000
Si      -1.54879034       3.11774310      -1.68283411       0.00000000
Si       3.03383820      -2.31278904      -0.86879669       0.00000000
Si      -2.16453605      -3.16565199       0.80833476       0.00000000
Si      -3.17388074      -0.01575243       2.33589165       0.00000000
Si       3.79099740       0.68041701       0.85955563       0.00000000
