10
Lattice="16.28999089631971 0.0 0.0 0.0 16.28999089631971 0.0 0.0 0.0 34.35334932831803" Properties=species:S:1:pos:R:3:initial_magmoms:R:1 pbc="T T T"
Si       1.56033276       1.73832219       0.25493635       0.00000000
Si       0.63850610      -1.90509921       1.29072476       0.00000000
Si      -1.95078844       0.40314492       1.32260469       0.00000000
Si      -0.89050492       0.06310746      -2.22853737       0.00000000
Si      -3.01367836      -0.87218289      -1.73821174       0.00000000
Si      -1.49292541      -2.98216143       1.32542166       0.00000000
Si      -1.36514665       2.22231438       2.64397266       0.00000000
Si       0.93504926      -0.82425771       3.59545790       0.00000000
Si      -2.11776094      -1.30559463       2.92062033       0.00000000
Si      -2.17422208      -2.98079307      -1.05832422       0.00000000
