10
Lattice="16.28999089631971 0.0 0.0 0.0 16.28999089631971 0.0 0.0 0.0 34.35334932831803" Properties=species:S:1:pos:R:3:initial_magmoms:R:1 pbc="T T T"
Si      -1.35688858       1.35482301      -1.35936279       0.00000000
Si       1.34830701       1.34050410       1.38310097       0.00000000
Si       1.35609363      -1.35966114      -1.35898491       0.00000000
Si      -1.34287104      -1.35233064       1.38677678       0.00000000
Si       2.71495656       2.71392173      -0.00079013       0.00000000
Si      -0.00040725       2.71383224      -2.71666438       0.00000000
Si      -2.71500940       2.71551042       0.00329792       0.00000000
Si       2.71477737      -0.00153126      -2.71638956       0.00000000
Si       2.71401174      -2.71726974      -0.00137413       0.00000000
Si      -2.71605518      -2.71567332       0.00625231       0.00000000
