10
Lattice="16.28999089631971 0.0 0.0 0.0 16.28999089631971 0.0 0.0 0.0 34.35334932831803" Properties=species:S:1:pos:R:3:initial_magmoms:R:1 pbc="T T T"
Si       1.39567833      -1.27944918      -1.48533659       0.00000000
Si       1.60855605       1.22821780       1.34373201       0.00000000
Si      -1.29649178       1.45340099      -1.48420293       0.00000000
Si      -2.00802432      -0.82336176       1.29474411       0.00000000
Si       3.33827712      -0.60488028       1.40288851       0.00000000
Si       2.71173114      -2.60470584       0.05128958       0.00000000
Si      -2.72558483      -2.66893731      -0.02957825       0.00000000
Si      -2.63487916       2.82800006      -0.02992178       0.00000000
Si       0.04737132      -2.61995328      -2.86843757       0.00000000
Si       2.74113459       2.78934389      -0.02497490       0.00000000
