10
Lattice="16.28999089631971 0.0 0.0 0.0 16.28999089631971 0.0 0.0 0.0 34.35334932831803" Properties=species:S:1:pos:R:3:initial_magmoms:R:1 pbc="T T T"
Si      -0.34994178      -2.28584538      -0.24167595       0.00000000
Si       1.64465469       0.76913791       1.52425896       0.00000000
Si       0.18458199       0.43001920      -2.32936451       0.00000000
Si      -1.95899956       1.18755796       0.63917877       0.00000000
Si       0.90230310       2.99792105       1.25132145       0.00000000
Si       1.27250964      -2.82286152      -1.88517545       0.00000000
Si       0.86423337      -3.15226161       1.59458031       0.00000000
Si       2.02333203       1.85077925      -2.50391397       0.00000000
Si      -2.67140524      -2.52029106      -0.92523927       0.00000000
Si      -2.04608427       0.71202843      -3.10860196       0.00000000
