10
Lattice="16.290000149 0.0 0.0 0.0 16.290000149 0.0 0.0 0.0 29.1751946751" Properties=species:S:1:pos:R:3:initial_magmoms:R:1 pbc="T T T"
Si       1.61072263      -0.17132193      -1.67996606       0.00000000
Si      -0.43355835       2.29013293      -0.30172986       0.00000000
Si       0.24985602      -0.51320016       2.29853066       0.00000000
Si      -1.89698681      -1.30235293      -0.63205142       0.00000000
H        1.32737437      -2.22845573       1.50984550       0.00000000
H       -2.78018175      -0.44973432      -1.51961919       0.00000000
Si      -1.49594329       1.02918592       2.75031643       0.00000000
Si       0.04965192      -0.95364919      -3.27196891       0.00000000
Si      -2.32950260       2.27332979       1.03679889       0.00000000
Si      -0.86591125      -2.79031413      -2.10376494       0.00000000
