10
Lattice="16.290000149 0.0 0.0 0.0 16.290000149 0.0 0.0 0.0 29.1751946751" Properties=species:S:1:pos:R:3:initial_magmoms:R:1 pbc="T T T"
Si      -1.05495670      -1.18905598       1.70820765       0.00000000
Si       0.89024851      -1.77746708      -1.28528403       0.00000000
Si       1.88704991       1.45570699       0.14923112       0.00000000
Si      -1.62908147       1.29578806      -1.19198175       0.00000000
H        0.52048179       2.26582499       1.76381557       0.00000000
H       -1.30622995      -0.37263375       2.95247135       0.00000000
H       -3.21346317       0.27844497       0.59584500       0.00000000
H        2.61345359       1.53588637       1.47206362       0.00000000
Si       2.01026747      -0.33933699      -2.84183901       0.00000000
Si      -3.27129267      -1.31753521       0.83289346       0.00000000
