10
Lattice="16.290000149 0.0 0.0 0.0 16.290000149 0.0 0.0 0.0 29.1751946751" Properties=species:S:1:pos:R:3:initial_magmoms:R:1 pbc="T T T"
Si       1.04650219       1.09885825      -0.21233707       0.00000000
H       -0.49645404       1.53116227       1.81172124       0.00000000
Si      -2.18215955      -0.80295040      -1.12975106       0.00000000
Si      -0.95184100       0.24658173       2.46900920       0.00000000
Si       1.08046684      -1.10351719       2.40103100       0.00000000
Si      -0.14131575      -2.70290198       0.98081169       0.00000000
Si      -0.50220441      -2.48852558      -1.38077444       0.00000000
Si       2.21735572       0.96068647       1.80393146       0.00000000
Si       2.54628992       0.02842605      -1.63121431       0.00000000
Si      -0.20375532       2.74036899      -1.37473517       0.00000000
