10
Lattice="16.290000149 0.0 0.0 0.0 16.290000149 0.0 0.0 0.0 29.1751946751" Properties=species:S:1:pos:R:3:initial_magmoms:R:1 pbc="T T T"
Si       1.67995514      -1.68557519      -0.25102337       0.00000000
Si      -1.86794174      -0.83396656      -1.25144080       0.00000000
Si      -0.64177714       0.33425451       2.32602157       0.00000000
Si       0.68395195       1.86634532      -1.41978167       0.00000000
H        2.18215955       0.80295040       1.12975106       0.00000000
H       -1.07382052       2.50344722       0.11322893       0.00000000
H       -2.62624124      -0.29199825       1.25219936       0.00000000
H        0.58948624      -1.63145981       2.54127616       0.00000000
H       -0.50259537       2.37648296      -2.21816088       0.00000000
H       -3.26537940       0.14595840       1.19726246       0.00000000
