10
Lattice="16.290000149 0.0 0.0 0.0 16.290000149 0.0 0.0 0.0 29.1751946751" Properties=species:S:1:pos:R:3:initial_magmoms:R:1 pbc="T T T"
Si      -1.50110722      -1.36205578       1.16111440       0.00000000
Si       1.38882025      -1.35260758      -1.31755179       0.00000000
Si       1.33884253       1.28796886       1.43060567       0.00000000
Si      -1.34311051       1.34754139      -1.38115372       0.00000000
H       -0.85832011      -2.20328768       2.24164691       0.00000000
Si      -0.00902466      -2.72504009      -2.62877257       0.00000000
Si       2.69262299       2.67164147       0.07731427       0.00000000
Si      -2.93187423      -0.13525587       2.44721533       0.00000000
Si       2.73685035      -2.66646125       0.10456390       0.00000000
Si       2.73285929      -0.00508248      -2.68700625       0.00000000
