10
Lattice="16.290000149 0.0 0.0 0.0 16.290000149 0.0 0.0 0.0 29.1751946751" Properties=species:S:1:pos:R:3:initial_magmoms:R:1 pbc="T T T"
Si       1.35570268       1.34043895      -1.31544243       0.00000000
Si       1.43324308      -1.31971807       1.28297919       0.00000000
Si      -1.33602436       1.44130663       1.28922268       0.00000000
Si      -1.30463353      -1.29502243      -1.47589433       0.00000000
Si      -0.05059674       2.70396083      -2.57005749       0.00000000
Si       0.05315427      -2.63748134       2.64662778       0.00000000
Si      -2.67193469      -2.64525167      -0.12533664       0.00000000
Si      -2.69983946       0.07967439       2.61885300       0.00000000
Si       2.77941612      -2.59900436      -0.17785199       0.00000000
Si       2.76855069       0.08465913       2.62159547       0.00000000
