10
Lattice="16.290000149 0.0 0.0 0.0 16.290000149 0.0 0.0 0.0 29.1751946751" Properties=species:S:1:pos:R:3:initial_magmoms:R:1 pbc="T T T"
Si       1.34623982       1.32805855      -1.38216318       0.00000000
Si      -1.33090767      -1.36041049      -1.37881095       0.00000000
Si      -1.35475623       1.38847816       1.33027218       0.00000000
Si       1.36922501      -1.34889346       1.36385283       0.00000000
Si      -2.62664687      -2.67454109       0.09079321       0.00000000
Si       2.70795351       2.69646743      -0.01820532       0.00000000
Si      -2.69552099       0.03533301       2.71597722       0.00000000
Si      -0.04003593       2.66815541      -2.75295386       0.00000000
Si       0.00947101       2.71841006       2.70961703       0.00000000
Si       2.72921196       0.00560376       2.71764021       0.00000000
