10
Lattice="16.290000149 0.0 0.0 0.0 16.290000149 0.0 0.0 0.0 29.1751946751" Properties=species:S:1:pos:R:3:initial_magmoms:R:1 pbc="T T T"
Si       0.64941715      -0.42500610       2.13270965       0.00000000
Si      -1.07157250      -1.76161691      -1.06002235       0.00000000
Si      -1.70284259       1.59669694      -0.01350812       0.00000000
Si       1.78870718       0.58344265      -1.44469729       0.00000000
Si      -0.31076433       3.03067308      -1.19204010       0.00000000
H        3.08811162       1.12764268      -0.51923094       0.00000000
H       -0.56228194      -3.04464990       1.33447340       0.00000000
Si      -1.99640468      -0.72169588      -2.89560890       0.00000000
Si       0.75961900       1.91946701      -3.05934009       0.00000000
Si      -1.25771833      -1.21552723       3.25602175       0.00000000
