10
Lattice="16.290000149 0.0 0.0 0.0 16.290000149 0.0 0.0 0.0 29.1751946751" Properties=species:S:1:pos:R:3:initial_magmoms:R:1 pbc="T T T"
H       -0.90277552       0.74049454       0.97774830       0.00000000
Si       1.14873823       1.64537147      -1.17648973       0.00000000
Si       1.40216600      -1.17048538       1.46150220       0.00000000
Si      -1.59101173      -1.13121019      -1.34232153       0.00000000
Si      -1.98029387       2.45575010       1.76643346       0.00000000
Si      -0.61942726       2.79762834      -2.21206326       0.00000000
Si       2.61715631       0.44188254      -2.51370560       0.00000000
Si      -0.05670549      -2.34921350       2.87824966       0.00000000
Si      -2.23014989       2.96895027      -0.53209720       0.00000000
Si       2.86210579      -2.45096084       0.11620480       0.00000000
