10
Lattice="16.290000149 0.0 0.0 0.0 16.290000149 0.0 0.0 0.0 29.1751946751" Properties=species:S:1:pos:R:3:initial_magmoms:R:1 pbc="T T T"
Si      -2.24288867       0.50735205      -0.28798835       0.00000000
Si       0.92307449      -0.82834814      -1.98922312       0.00000000
Si       0.28736782      -1.82639507       1.56524919       0.00000000
Si       1.34041940       1.97659604       0.47584743       0.00000000
Si       1.63539873      -0.61192408       3.04386557       0.00000000
Si       2.97269697       0.79182433       1.68857070       0.00000000
Si       2.77651650      -1.99238105      -1.06915418       0.00000000
Si      -0.93949318      -1.71623134      -3.12860200       0.00000000
Si      -2.97343002       1.14013711       1.89254528       0.00000000
Si       1.45896499      -3.41697414       0.27824383       0.00000000
