10
Lattice="16.290000149 0.0 0.0 0.0 16.290000149 0.0 0.0 0.0 29.1751946751" Properties=species:S:1:pos:R:3:initial_magmoms:R:1 pbc="T T T"
Si       1.37500633       1.34252407      -1.34232153       0.00000000
Si       1.36197433      -1.39434256       1.30503563       0.00000000
Si      -1.35449722      -1.35340579      -1.36070190       0.00000000
Si      -1.35239581       1.36982611       1.35089904       0.00000000
Si       0.00576666       2.69066819      -2.68379698       0.00000000
Si       2.78198994      -0.08434962       2.61908640       0.00000000
Si      -2.74147670       0.01026270       2.66442465       0.00000000
Si       0.01285281      -2.75232585       2.65838539       0.00000000
Si       0.01480761      -2.73248462      -2.68333018       0.00000000
Si       0.02456532       2.73580779       2.68747306       0.00000000
