10
Lattice="16.290000149 0.0 0.0 0.0 16.290000149 0.0 0.0 0.0 29.1751946751" Properties=species:S:1:pos:R:3:initial_magmoms:R:1 pbc="T T T"
Si       1.41481909      -1.23002533       1.37528950       0.00000000
Si      -1.42446277       1.24958962       1.37222611       0.00000000
Si      -1.35577990      -1.40652748      -1.31994416       0.00000000
Si       1.36883242       1.42830721      -1.30106781       0.00000000
H       -1.20530526      -1.46111527       3.02902706       0.00000000
Si      -0.09624621      -2.46420461       2.71116332       0.00000000
Si       2.58255146      -2.63808407      -0.08218652       0.00000000
Si      -0.01076769       2.69475698       2.54393110       0.00000000
Si       2.56991042       0.02661786      -2.77593225       0.00000000
Si      -2.71963181       2.65862576       0.00764390       0.00000000
