10
Lattice="16.290000149 0.0 0.0 0.0 16.290000149 0.0 0.0 0.0 29.1751946751" Properties=species:S:1:pos:R:3:initial_magmoms:R:1 pbc="T T T"
Si       1.36677988       1.35826021       1.32971785       0.00000000
Si       1.37103157      -1.35666379      -1.33307300       0.00000000
Si      -1.34309422       1.38308617      -1.34378029       0.00000000
Si      -1.37520181      -1.33636645       1.36201479       0.00000000
Si      -0.07174116       2.69086367       2.61293044       0.00000000
Si      -0.00206883      -2.70415631      -2.67632813       0.00000000
Si      -2.69102657       0.02127474      -2.69456263       0.00000000
Si      -0.02037879      -2.70402599       2.69809283       0.00000000
Si       2.72111420       0.00804726      -2.68966120       0.00000000
Si       2.72075582       2.70945056      -0.03276374       0.00000000
