10
Lattice="16.290000149 0.0 0.0 0.0 16.290000149 0.0 0.0 0.0 29.1751946751" Properties=species:S:1:pos:R:3:initial_magmoms:R:1 pbc="T T T"
Si       1.44568864      -1.19177641      -1.35790167       0.00000000
Si      -1.34595800      -1.46191348       1.23237714       0.00000000
Si      -1.35770635       1.24289443      -1.45479249       0.00000000
Si       1.42640128       1.36011727       1.27839226       0.00000000
Si      -2.70594821      -0.00316026       2.51948754       0.00000000
Si       0.08226450      -2.53382807      -2.69718898       0.00000000
Si       0.09682776       2.67445964       2.69808057       0.00000000
Si      -2.52930353       2.83347350      -0.16778713       0.00000000
Si       2.75555127      -0.03629412       2.64648133       0.00000000
Si       0.04031775      -2.80201035       2.60316783       0.00000000
