10
Lattice="16.290000149 0.0 0.0 0.0 16.290000149 0.0 0.0 0.0 29.1751946751" Properties=species:S:1:pos:R:3:initial_magmoms:R:1 pbc="T T T"
Si       1.53852535      -1.27198837      -1.19656226       0.00000000
Si       1.39634623       1.32108643       1.36466973       0.00000000
Si      -1.21617883      -1.43490466       1.44236036       0.00000000
Si      -1.47040057       1.20923929      -1.45625067       0.00000000
H        0.36536841      -1.81771967      -2.25174153       0.00000000
Si      -2.66973554       2.68203449      -0.02625768       0.00000000
Si       2.85521772       2.49981455      -0.05207772       0.00000000
Si      -2.64792323      -0.06294456       2.72629065       0.00000000
Si      -0.13796001       2.53908974      -2.85590146       0.00000000
Si       0.06597450       2.76151341       2.67870883       0.00000000
