10
Lattice="16.290000149 0.0 0.0 0.0 16.290000149 0.0 0.0 0.0 29.1751946751" Properties=species:S:1:pos:R:3:initial_magmoms:R:1 pbc="T T T"
Si      -2.23207211       0.50774301      -0.32676218       0.00000000
Si       0.89259427      -1.42267087       1.58958131       0.00000000
Si       0.56254258      -1.03532725      -2.00967493       0.00000000
Si       1.24424650       1.78578964      -0.84421343       0.00000000
H       -0.01697418      -1.49612248       2.80534084       0.00000000
Si       0.60533641       1.11020098      -2.99066168       0.00000000
Si       2.78039352      -0.08226450       1.97807820       0.00000000
Si       3.30074499       1.17326608       0.04633021       0.00000000
Si       1.17134875       1.44633373       3.05793968       0.00000000
Si      -1.05795406      -2.72345996      -2.08019138       0.00000000
