10
Lattice="16.290000149 0.0 0.0 0.0 16.290000149 0.0 0.0 0.0 29.1751946751" Properties=species:S:1:pos:R:3:initial_magmoms:R:1 pbc="T T T"
Si      -1.41877756       1.37362168      -1.25441667       0.00000000
Si      -1.30276018      -1.23782824       1.50173480       0.00000000
Si       1.18330561      -1.44886519      -1.41467601       0.00000000
Si       1.85595230       0.93390571       1.10396019       0.00000000
Si       3.45846477      -0.84217672       1.01410059       0.00000000
Si       2.57678480      -2.73075788      -0.05254453       0.00000000
Si      -0.04310334       2.69480585      -2.61891135       0.00000000
Si       2.56753208      -0.11337840      -2.75580136       0.00000000
Si      -2.77524588      -0.00765630      -2.60595756       0.00000000
Si      -2.73864224      -2.64694583       0.18400795       0.00000000
