10
Lattice="16.290000149 0.0 0.0 0.0 16.290000149 0.0 0.0 0.0 29.1751946751" Properties=species:S:1:pos:R:3:initial_magmoms:R:1 pbc="T T T"
Si       1.42641757       1.38973249       1.17917384       0.00000000
Si      -1.31952259       1.44102970      -1.27626889       0.00000000
Si       1.43480692      -1.32155884      -1.28230816       0.00000000
Si      -1.38422647      -1.33548679       1.34112535       0.00000000
Si       0.05743854      -2.66163941      -2.61479765       0.00000000
Si      -2.66817170       0.07869699      -2.62407536       0.00000000
Si       0.00925272      -2.61737948       2.70325684       0.00000000
Si      -2.56753208       0.11337840       2.75580136       0.00000000
Si       2.72192870       0.09601326       2.60551994       0.00000000
Si       0.06955830       2.80059312      -2.58979451       0.00000000
