10
Lattice="16.290000149 0.0 0.0 0.0 16.290000149 0.0 0.0 0.0 29.1751946751" Properties=species:S:1:pos:R:3:initial_magmoms:R:1 pbc="T T T"
Si      -1.36076887       1.35169534       1.35250367       0.00000000
Si      -1.36010098      -1.34364808      -1.36347355       0.00000000
Si       1.32393718      -1.36440154       1.39308637       0.00000000
Si       1.35553978       1.37771047      -1.35638398       0.00000000
Si       2.69423570      -2.70437134       0.02689953       0.00000000
Si       0.01264104       2.71604801       2.68438049       0.00000000
Si       2.69780321       0.01896156       2.70308179       0.00000000
Si       0.00244350      -2.70625284      -2.70932528       0.00000000
Si      -2.72469800      -2.69124323      -0.01342059       0.00000000
Si      -2.71568963       2.70329294      -0.01622141       0.00000000
