10
Lattice="16.290000149 0.0 0.0 0.0 16.290000149 0.0 0.0 0.0 29.1751946751" Properties=species:S:1:pos:R:3:initial_magmoms:R:1 pbc="T T T"
Si      -1.30658833      -1.31411105      -1.44624358       0.00000000
Si      -1.32577795       1.39375938       1.36335685       0.00000000
Si       1.26105778      -1.39214015       1.43028474       0.00000000
Si       1.36757809       1.35930603      -1.37633981       0.00000000
Si      -2.66163941      -2.66886892      -0.11177017       0.00000000
Si       2.66115071       0.02454577       2.68688955       0.00000000
Si       2.69110802      -2.67416317       0.01873047       0.00000000
Si      -2.67156002       2.72835022      -0.04317929       0.00000000
Si       0.07206696       2.76619189       2.67457762       0.00000000
Si      -2.68105709       0.03246434      -2.78284677       0.00000000
