10
Lattice="16.290000149 0.0 0.0 0.0 16.290000149 0.0 0.0 0.0 29.1751946751" Properties=species:S:1:pos:R:3:initial_magmoms:R:1 pbc="T T T"
Si       1.34793235       1.36181143       1.35078234       0.00000000
Si      -1.34300300       1.35801586      -1.36373612       0.00000000
Si       1.35909100      -1.35537688      -1.35434171       0.00000000
Si      -1.36784199      -1.36498798       1.34442215       0.00000000
Si      -0.03345966      -2.69871545      -2.68385533       0.00000000
Si       2.69102657      -0.02127474       2.69456263       0.00000000
Si      -2.67793984      -0.01891269      -2.70897518       0.00000000
Si      -0.04046436       2.71251308       2.68481811       0.00000000
Si       2.69632082       2.70935282      -0.02777479       0.00000000
Si       2.68895774      -2.72543105       0.01823450       0.00000000
