10
Lattice="16.290000149 0.0 0.0 0.0 16.290000149 0.0 0.0 0.0 29.1751946751" Properties=species:S:1:pos:R:3:initial_magmoms:R:1 pbc="T T T"
Si      -0.64278712       0.84123190      -1.08053251       0.00000000
Si       2.14687541       0.24966054       1.30982037       0.00000000
Si       2.25518762      -1.48146148      -0.49568656       0.00000000
Si       0.39148128       1.22197807       2.57220186       0.00000000
Si      -2.07355412       2.06803181       0.20556842       0.00000000
Si       0.41930460      -2.66622994      -1.49907985       0.00000000
Si      -2.08339328      -0.48933531      -2.28891072       0.00000000
Si      -0.69027247      -2.31241602       2.13860012       0.00000000
Si      -1.37323072      -0.26155224       2.90611197       0.00000000
Si       0.85832011       2.20328768      -2.24164691       0.00000000
