10
Lattice="16.290000149 0.0 0.0 0.0 16.290000149 0.0 0.0 0.0 29.1751946751" Properties=species:S:1:pos:R:3:initial_magmoms:R:1 pbc="T T T"
Si      -1.36770678       1.24092334      -1.44706048       0.00000000
Si       1.20107800      -1.40168935      -1.47486444       0.00000000
Si      -1.36883242      -1.42830721       1.30106781       0.00000000
Si       1.43588206       1.40911759       1.31772684       0.00000000
Si      -0.06660981       2.74730853       2.56467466       0.00000000
Si       2.56039706      -2.75967264      -0.17432179       0.00000000
Si       0.04598667      -2.65833254       2.67635731       0.00000000
Si      -2.77237884       2.55972917      -0.13335981       0.00000000
Si       2.73864224       2.64694583      -0.18400795       0.00000000
Si      -0.03660363       2.63928953      -2.78996552       0.00000000
