10
Lattice="16.290000149 0.0 0.0 0.0 16.290000149 0.0 0.0 0.0 29.1751946751" Properties=species:S:1:pos:R:3:initial_magmoms:R:1 pbc="T T T"
Si      -1.36730116      -1.35022924       1.35055769       0.00000000
Si       1.30463353       1.29502243       1.47589433       0.00000000
Si      -1.37155285       1.41063256      -1.30549368       0.00000000
Si       1.36288657      -1.34767171      -1.39127751       0.00000000
Si       2.66033621       2.63546138       0.16045190       0.00000000
Si       2.71179632      -2.71023248      -0.01436003       0.00000000
Si      -0.01567098      -2.66905136       2.75866929       0.00000000
Si      -2.71088408      -2.71958294      -0.01335640       0.00000000
Si      -2.73000854       0.02335986       2.70043560       0.00000000
Si      -2.78321169       0.11328066      -2.65086490       0.00000000
