10
Lattice="16.290000149 0.0 0.0 0.0 16.290000149 0.0 0.0 0.0 29.1751946751" Properties=species:S:1:pos:R:3:initial_magmoms:R:1 pbc="T T T"
Si       2.27273847      -0.47105793       0.12250664       0.00000000
Si      -0.28422792       0.74023553       2.20506121       0.00000000
Si      -0.58000546       1.73467487      -1.51941496       0.00000000
Si      -1.53140662      -1.84164968      -0.42499506       0.00000000
H       -1.33178896       1.85392256       2.22501705       0.00000000
Si       2.54119115      -1.29774286      -2.03108953       0.00000000
Si      -1.11619081      -1.18667764       3.22692241       0.00000000
Si      -2.67726152      -1.96900490       1.63491956       0.00000000
Si      -1.76972933       0.59036948      -3.21183883       0.00000000
Si      -3.05934348      -0.84615148      -1.93002665       0.00000000
