10
Lattice="16.290000149 0.0 0.0 0.0 16.290000149 0.0 0.0 0.0 29.1751946751" Properties=species:S:1:pos:R:3:initial_magmoms:R:1 pbc="T T T"
Si      -2.05649849       0.61252355      -0.89054364       0.00000000
Si       1.02985381      -1.62410813      -1.31606386       0.00000000
Si      -0.52035147      -1.25553058       1.93174799       0.00000000
Si       1.51770673       1.84751896       0.06946614       0.00000000
Si       2.31946796      -0.18758717      -2.59787603       0.00000000
Si      -3.30074499      -1.17326608      -0.04633021       0.00000000
Si       2.55779066      -2.61960633       0.18896774       0.00000000
Si       0.78064939       3.17460012      -1.71932340       0.00000000
Si      -2.12939624       0.27306764       3.01160947       0.00000000
Si       0.90091846       2.92106255       2.11476399       0.00000000
