10
Lattice="16.290000149 0.0 0.0 0.0 16.290000149 0.0 0.0 0.0 29.1751946751" Properties=species:S:1:pos:R:3:initial_magmoms:R:1 pbc="T T T"
Si       1.34667802       1.33291297       1.38907186       0.00000000
Si       1.33037173      -1.44042697      -1.31403910       0.00000000
Si      -1.34164441      -1.41820741       1.35998419       0.00000000
Si      -1.42734610       1.36713826      -1.33452592       0.00000000
H        0.48430170       1.64928107      -3.21454045       0.00000000
Si      -2.76535785       2.52123590       0.22239376       0.00000000
Si       2.64982916       2.68653053      -0.04508735       0.00000000
Si      -0.06597450      -2.76151341      -2.67870883       0.00000000
Si      -2.73571005      -0.07947891      -2.70496650       0.00000000
Si       2.69509907      -0.05189994       2.75102830       0.00000000
