10
Lattice="16.290000149 0.0 0.0 0.0 16.290000149 0.0 0.0 0.0 29.1751946751" Properties=species:S:1:pos:R:3:initial_magmoms:R:1 pbc="T T T"
Si      -1.48071214       1.26213292       1.29998832       0.00000000
Si      -1.42161202      -1.27417123      -1.39521616       0.00000000
Si       1.30934558       1.35964486      -1.42952619       0.00000000
Si       1.26838828      -1.37694484       1.48104958       0.00000000
H        1.45982022       1.30505707       2.91944503       0.00000000
Si      -2.86990707      -0.56133712       2.05168722       0.00000000
Si      -2.76159486      -2.29245914       0.24618029       0.00000000
Si       2.52315812      -2.64520280      -0.09694917       0.00000000
Si       2.56887927       0.30196773       2.60158128       0.00000000
Si       2.66512547       2.76617235      -0.10958203       0.00000000
