10
Lattice="16.290000149 0.0 0.0 0.0 16.290000149 0.0 0.0 0.0 29.1751946751" Properties=species:S:1:pos:R:3:initial_magmoms:R:1 pbc="T T T"
Si      -1.34667802      -1.33291297      -1.38907186       0.00000000
Si      -1.34368066       1.30320001       1.42398290       0.00000000
Si       1.30315114       1.35361756      -1.43415921       0.00000000
Si       1.34842105      -1.38481291       1.36195644       0.00000000
Si       2.69366067       2.64073934       0.00055433       0.00000000
Si      -2.68996772       2.64806984       0.05849627       0.00000000
Si       2.66314135      -0.10513566      -2.72126960       0.00000000
Si      -2.68832243      -2.75112039      -0.02908767       0.00000000
Si       0.01378134       2.65126268       2.79174520       0.00000000
Si       2.71264829      -0.05488101       2.74130129       0.00000000
