10
Lattice="16.290000149 0.0 0.0 0.0 16.290000149 0.0 0.0 0.0 29.1751946751" Properties=species:S:1:pos:R:3:initial_magmoms:R:1 pbc="T T T"
Si      -1.28776035      -1.41040450      -1.31968158       0.00000000
Si       1.41800867      -1.22282515       1.37835290       0.00000000
Si      -1.33949739       1.30495933       1.42272837       0.00000000
Si       1.46484243       1.38127798      -1.21742252       0.00000000
Si       2.08146780       0.65933776       2.66810073       0.00000000
Si       0.43049258       2.31375017       2.57821195       0.00000000
Si      -2.61039433      -0.03626154      -2.65558457       0.00000000
Si       0.11913692       2.73075788      -2.60861251       0.00000000
Si      -2.60384575      -2.73981513       0.12238994       0.00000000
Si       0.10501837      -2.70368390       2.65867714       0.00000000
