10
Lattice="16.290000149 0.0 0.0 0.0 16.290000149 0.0 0.0 0.0 29.1751946751" Properties=species:S:1:pos:R:3:initial_magmoms:R:1 pbc="T T T"
Si      -1.32943180       1.35917245      -1.36615767       0.00000000
Si       1.31059567       1.42682482       1.32612930       0.00000000
Si      -1.33875294      -1.36948402       1.36501983       0.00000000
Si       1.37717290      -1.34537482      -1.35883469       0.00000000
Si       2.66991473       0.06884154       2.62667195       0.00000000
Si      -2.65036673       2.69606018       0.03988249       0.00000000
Si       2.68063355       2.68185530      -0.10791905       0.00000000
Si      -2.67186953      -0.00136836      -2.72099536       0.00000000
Si      -2.61509465      -0.00632052       2.78211739       0.00000000
Si       0.02176344      -2.71347419      -2.69657572       0.00000000
