10
Lattice="16.290000149 0.0 0.0 0.0 16.290000149 0.0 0.0 0.0 29.1751946751" Properties=species:S:1:pos:R:3:initial_magmoms:R:1 pbc="T T T"
H       -1.17315694      -0.54573130      -1.05517927       0.00000000
Si      -1.53852535       1.27198837       1.19656226       0.00000000
Si       1.14271093      -1.50229639       1.38002464       0.00000000
Si       1.67036195       0.78128470      -1.44808161       0.00000000
Si      -2.47256138      -1.08993133      -1.98064562       0.00000000
Si       3.08816049      -1.17302662      -1.46269839       0.00000000
Si      -0.14217912       2.59307480       2.56123199       0.00000000
Si       2.64765771      -0.11673414       2.54775889       0.00000000
Si       2.77663215       2.49132746      -0.20081286       0.00000000
Si       2.40697458      -2.93034297       0.05350731       0.00000000
