10
Lattice="16.290000149 0.0 0.0 0.0 16.290000149 0.0 0.0 0.0 29.1751946751" Properties=species:S:1:pos:R:3:initial_magmoms:R:1 pbc="T T T"
Si      -1.31549896       1.32344360       1.40036850       0.00000000
Si       0.98924284       1.78816472      -1.15080972       0.00000000
Si       1.38290698      -1.32448471       1.36564418       0.00000000
Si      -1.29764512      -1.28419186      -1.50597395       0.00000000
Si      -2.51792903       2.72034369      -0.04207063       0.00000000
Si       1.07681788       1.09536730      -3.37907980       0.00000000
Si      -2.63303417      -2.64844940      -0.09713881       0.00000000
Si      -0.64374823       3.52414117      -1.23695415       0.00000000
Si       0.11311776       2.72716920       2.64326389       0.00000000
Si       0.03292209      -2.71965299       2.67623186       0.00000000
