10
Lattice="16.290000149 0.0 0.0 0.0 16.290000149 0.0 0.0 0.0 29.1751946751" Properties=species:S:1:pos:R:3:initial_magmoms:R:1 pbc="T T T"
H       -1.18654732       0.51013764      -0.79837920       0.00000000
Si       1.33563340      -1.07110009      -1.61796877       0.00000000
H       -1.75777247       0.63710191       1.53301060       0.00000000
Si       1.29445228       1.67697407       1.17479756       0.00000000
Si      -0.68395195      -1.86634532       1.41978167       0.00000000
H       -0.55500031       2.17246700      -1.90161001       0.00000000
H        1.49820760      -1.06339492       2.54953274       0.00000000
Si      -3.07154469       1.09408528       0.92826717       0.00000000
H       -1.99348877       1.26249130      -2.45118316       0.00000000
Si       2.54470979       0.03546333       2.33719567       0.00000000
