10
Lattice="16.290000149 0.0 0.0 0.0 16.290000149 0.0 0.0 0.0 29.1751946751" Properties=species:S:1:pos:R:3:initial_magmoms:R:1 pbc="T T T"
Si       0.84520666      -1.85632697       1.10600245       0.00000000
Si      -1.71862760       0.75530215       1.37896558       0.00000000
Si      -1.07144218      -0.06674013      -2.09865928       0.00000000
Si       1.80393833       1.58780260       0.11693418       0.00000000
H        2.33419412       1.83855458      -1.27168839       0.00000000
H       -1.19200447      -3.01182555      -1.01232090       0.00000000
Si      -0.35520345       2.09735381       2.71825289       0.00000000
H        1.66288322       0.91838134      -2.88802335       0.00000000
Si       2.56922624      -2.30057156      -0.41312076       0.00000000
Si      -0.61131484       2.12814191      -2.71959495       0.00000000
