10
Lattice="16.290000149 0.0 0.0 0.0 16.290000149 0.0 0.0 0.0 29.1751946751" Properties=species:S:1:pos:R:3:initial_magmoms:R:1 pbc="T T T"
Si       0.97614568      -1.85793968       0.89970465       0.00000000
Si      -1.48888972      -1.01188594      -1.46692879       0.00000000
Si      -1.61210728       0.78315805       1.52414135       0.00000000
Si       1.65941345       1.52666623      -0.72999255       0.00000000
H        0.90111394       2.06863454       1.77364761       0.00000000
H        0.26197578       2.50659119       1.71871072       0.00000000
H       -0.88570360       0.86333743       2.84697385       0.00000000
Si      -1.96048523       2.73580779       0.15322812       0.00000000
Si       0.16746120       3.32368131      -0.84613900       0.00000000
Si      -0.05812272      -2.23868585      -2.75302972       0.00000000
