10
Lattice="16.290000149 0.0 0.0 0.0 16.290000149 0.0 0.0 0.0 29.1751946751" Properties=species:S:1:pos:R:3:initial_magmoms:R:1 pbc="T T T"
Si       1.33244056       1.32985045      -1.39965079       0.00000000
Si      -1.19933497       1.47279520       1.42999299       0.00000000
Si       1.47040057      -1.20923929       1.45625067       0.00000000
Si      -1.56310696      -1.12392856      -1.46830002       0.00000000
H        1.83576899      -3.02695896      -0.79549086       0.00000000
Si      -0.17260884       2.63969678      -2.69319140       0.00000000
Si      -2.52643241       0.09037692       2.80562384       0.00000000
Si       2.92345230       2.46106064      -0.05732926       0.00000000
H        2.02067678       3.20155518       0.92041904       0.00000000
Si      -2.59921613       2.89571043       0.20489739       0.00000000
