10
Lattice="16.290000149 0.0 0.0 0.0 16.290000149 0.0 0.0 0.0 29.1751946751" Properties=species:S:1:pos:R:3:initial_magmoms:R:1 pbc="T T T"
Si       1.82034236      -0.89145397       1.14398856       0.00000000
Si      -0.89024851       1.77746708       1.28528403       0.00000000
Si       1.12001896       1.43813008      -1.55655499       0.00000000
Si      -1.02416860      -2.15215337      -0.38940132       0.00000000
H       -1.94463506      -0.57309850      -1.85034920       0.00000000
Si       2.60890868       2.45001602      -0.08962620       0.00000000
Si      -0.05452263      -2.55516146      -2.54565244       0.00000000
Si      -1.94520521       0.58841110       2.99349167       0.00000000
Si       0.99680140       3.23317407       1.43451515       0.00000000
H        3.19357308      -0.62990173      -1.76212341       0.00000000
