10
Lattice="16.290000149 0.0 0.0 0.0 16.290000149 0.0 0.0 0.0 29.1751946751" Properties=species:S:1:pos:R:3:initial_magmoms:R:1 pbc="T T T"
Si      -1.37845981      -1.36397800      -1.30506481       0.00000000
Si      -1.38539935       1.31442382       1.35842624       0.00000000
Si       1.32937804      -1.36669843       1.37601888       0.00000000
Si       1.32471910       1.38678400      -1.38328351       0.00000000
Si      -2.69570180       0.02746494      -2.64668614       0.00000000
Si      -0.01495422       2.67600719       2.68592677       0.00000000
Si      -0.05108544      -2.72284094      -2.67145588       0.00000000
Si       2.68815953      -0.00156384       2.70751642       0.00000000
Si       2.74991493       0.02648754      -2.65365901       0.00000000
Si       2.69469182      -2.71393031       0.02567417       0.00000000
