10
Lattice="16.290000149 0.0 0.0 0.0 16.290000149 0.0 0.0 0.0 29.1751946751" Properties=species:S:1:pos:R:3:initial_magmoms:R:1 pbc="T T T"
Si      -1.34271955      -1.33180525       1.37368487       0.00000000
Si       1.37342620      -1.35839053      -1.32233652       0.00000000
Si       1.36070371       1.30798927       1.38923524       0.00000000
Si      -1.35620767       1.33485148      -1.37814867       0.00000000
Si      -0.06908589       2.75242359       2.50967942       0.00000000
Si       0.00001629      -2.72274320      -2.65421334       0.00000000
Si      -2.78176188       0.03903084       2.60741632       0.00000000
Si       2.72769537       0.01624113      -2.66509568       0.00000000
Si      -2.72350883      -2.68265351       0.03136333       0.00000000
Si       2.70962975       2.69915528       0.04352939       0.00000000
