10
Lattice="16.290000149 0.0 0.0 0.0 16.290000149 0.0 0.0 0.0 29.1751946751" Properties=species:S:1:pos:R:3:initial_magmoms:R:1 pbc="T T T"
Si      -0.08757504       0.69279742       2.22827008       0.00000000
Si       0.72516565      -2.19084538      -0.40544768       0.00000000
Si       1.93767923       1.02788272      -0.90311815       0.00000000
Si      -2.20204964       0.38190276      -0.79875848       0.00000000
H        2.44696979      -0.25515027       1.49137760       0.00000000
Si       2.62539416      -1.64255818       0.88053655       0.00000000
Si      -2.15474348       2.67792941      -0.14129547       0.00000000
Si       1.46321668      -1.84950797      -2.66550414       0.00000000
Si       1.01284705       2.06780375      -2.73870470       0.00000000
Si       0.24842250       0.01953171      -3.61804507       0.00000000
