10
Lattice="16.290000149 0.0 0.0 0.0 16.290000149 0.0 0.0 0.0 29.1751946751" Properties=species:S:1:pos:R:3:initial_magmoms:R:1 pbc="T T T"
Si       1.38539935      -1.31442382      -1.35842624       0.00000000
Si       1.37044513       1.36158337       1.32750053       0.00000000
Si      -1.35580042       1.37029852      -1.33917061       0.00000000
Si      -1.35645202      -1.35553978       1.35775521       0.00000000
Si       0.00693954      -2.67840182      -2.66349105       0.00000000
Si      -0.00863370       2.70844058       2.64919520       0.00000000
Si       0.02428839       2.68806179      -2.70281921       0.00000000
Si       2.71477739      -2.68112225       0.01759264       0.00000000
Si      -2.73512361       0.01037673       2.67005547       0.00000000
Si      -2.73476523      -2.69102657       0.01315801       0.00000000
