10
Lattice="16.290000149 0.0 0.0 0.0 16.290000149 0.0 0.0 0.0 29.1751946751" Properties=species:S:1:pos:R:3:initial_magmoms:R:1 pbc="T T T"
Si       1.72620245       0.93978640       1.27541989       0.00000000
Si      -0.86532481      -1.72853843       1.38281378       0.00000000
Si       0.73054135      -0.63278506      -2.18053363       0.00000000
Si      -1.70497658       1.66842182       0.12655616       0.00000000
H       -2.91667566      -0.95122198      -0.67168008       0.00000000
Si       0.46778364       2.34017255       2.64081609       0.00000000
Si      -2.36317403      -0.49296798       2.66304175       0.00000000
Si      -0.84230704      -2.32182675      -2.62104989       0.00000000
Si       2.97343002      -1.14013711      -1.89254528       0.00000000
Si      -2.35439372       2.09342792      -2.00615349       0.00000000
