10
Lattice="16.290000149 0.0 0.0 0.0 16.290000149 0.0 0.0 0.0 29.1751946751" Properties=species:S:1:pos:R:3:initial_magmoms:R:1 pbc="T T T"
Si       1.29516904      -1.40903614       1.36458221       0.00000000
Si      -1.33563340       1.07110009       1.61796877       0.00000000
Si       1.31608540       1.32941062      -1.44207152       0.00000000
Si      -1.41133303      -1.36086661      -1.32052766       0.00000000
H       -2.52218072       1.58123773       0.81958957       0.00000000
Si       2.70886412       0.03613122       2.53628720       0.00000000
Si      -2.01958535      -0.79524523       3.03775044       0.00000000
Si      -0.33963021      -2.48082041       2.78672707       0.00000000
H       -1.89063371       3.24356709      -0.28364124       0.00000000
Si       2.60384575       2.73981513      -0.12238994       0.00000000
