10
Lattice="16.290000149 0.0 0.0 0.0 16.290000149 0.0 0.0 0.0 29.1751946751" Properties=species:S:1:pos:R:3:initial_magmoms:R:1 pbc="T T T"
Si      -1.36208220      -1.39504303      -1.31851166       0.00000000
Si       1.29401571      -1.35317773       1.43188938       0.00000000
Si      -1.35046447       1.32662503       1.40676954       0.00000000
Si       1.37455347       1.36041049      -1.36221318       0.00000000
Si      -2.66134294      -2.68547820       0.15378245       0.00000000
Si      -2.81163448      -0.01019754      -2.54579248       0.00000000
Si       0.07099182      -2.70204513      -2.66989209       0.00000000
Si       2.69454847       2.70177797       0.03226777       0.00000000
Si       2.65035370      -2.74814257       0.14246248       0.00000000
Si      -2.68030450       2.73540054       0.09540289       0.00000000
