10
Lattice="16.290000149 0.0 0.0 0.0 16.290000149 0.0 0.0 0.0 29.1751946751" Properties=species:S:1:pos:R:3:initial_magmoms:R:1 pbc="T T T"
H       -1.45135756       0.26849178       0.43071340       0.00000000
Si       0.44292510      -2.13423437       0.88669252       0.00000000
Si      -0.36088866       0.21437640      -2.36158613       0.00000000
Si       1.22178259       1.59938479       1.42021930       0.00000000
H        0.14131575       2.70290198      -0.98081169       0.00000000
H        1.49306811      -1.42454422      -2.12693004       0.00000000
H        0.39946338      -3.18112752      -0.19947081       0.00000000
Si       3.29411496       0.27691371       0.48588369       0.00000000
Si      -0.81052525       2.94948372       1.48819751       0.00000000
Si      -2.04084380       1.89995159      -2.11056276       0.00000000
