10
Lattice="16.290000149 0.0 0.0 0.0 16.290000149 0.0 0.0 0.0 29.1751946751" Properties=species:S:1:pos:R:3:initial_magmoms:R:1 pbc="T T T"
Si      -1.31670230       1.43528911      -1.27609384       0.00000000
Si       1.31412620       1.38389904       1.36391118       0.00000000
Si      -1.39841295      -1.33473745       1.33479433       0.00000000
Si       1.28146638      -1.34526079      -1.45639654       0.00000000
Si      -2.64210559       0.09918362      -2.61301504       0.00000000
Si       2.64720859      -2.69335604      -0.08446219       0.00000000
Si      -0.02993628      -2.69146640       2.67571545       0.00000000
Si       2.66001253       0.02293632       2.71947825       0.00000000
Si       2.69373283       0.04523733      -2.71251704       0.00000000
Si       2.63865634       2.76758958       0.00201309       0.00000000
