10
Lattice="16.290000149 0.0 0.0 0.0 16.290000149 0.0 0.0 0.0 29.1751946751" Properties=species:S:1:pos:R:3:initial_magmoms:R:1 pbc="T T T"
Si       1.36935370      -1.34182360       1.35369986       0.00000000
Si       1.37691226       1.35560494      -1.33219774       0.00000000
Si      -1.32007645       1.36831114       1.38377948       0.00000000
Si      -1.36658440      -1.36210465      -1.35235780       0.00000000
Si      -0.01972719      -2.70138701       2.66722547       0.00000000
Si      -0.00565263       2.71489468      -2.65450509       0.00000000
Si       2.72751618      -0.02098152      -2.68099616       0.00000000
Si      -2.68351688       0.01826109       2.73394914       0.00000000
Si      -2.70995555       2.71714270       0.05099824       0.00000000
Si       2.72174951      -2.71164971       0.00280082       0.00000000
