10
Lattice="16.290000149 0.0 0.0 0.0 16.290000149 0.0 0.0 0.0 29.1751946751" Properties=species:S:1:pos:R:3:initial_magmoms:R:1 pbc="T T T"
Si       1.34595800       1.46191348      -1.23237714       0.00000000
Si       1.38627575      -1.34009686       1.37079069       0.00000000
Si      -1.35999021       1.45875322       1.28711039       0.00000000
Si      -1.22057615      -1.48947616      -1.39858881       0.00000000
Si      -2.67944764      -2.66820428       0.01815864       0.00000000
Si      -2.66314135       0.10513566       2.72126960       0.00000000
Si      -0.01174835       2.70480791      -2.68716964       0.00000000
Si       2.79164665       0.27013707      -2.59027881       0.00000000
Si       0.04003593      -2.66815541       2.75295386       0.00000000
Si       0.03051932       2.74587501       2.72182393       0.00000000
