10
Lattice="16.290000149 0.0 0.0 0.0 16.290000149 0.0 0.0 0.0 29.1751946751" Properties=species:S:1:pos:R:3:initial_magmoms:R:1 pbc="T T T"
Si      -1.38908089      -1.35956341       1.31352561       0.00000000
Si      -1.36935370       1.34182360      -1.35369986       0.00000000
Si       1.35239581      -1.36982611      -1.35089904       0.00000000
Si       1.37696113       1.36598167       1.33657402       0.00000000
Si       2.77211820      -0.08439849       2.53036463       0.00000000
Si       0.00755856       2.69742854      -2.68589760       0.00000000
Si      -0.06955830      -2.80059312       2.58979451       0.00000000
Si      -2.68943015       2.71013474       0.03007963       0.00000000
Si      -2.68019372       0.00759114       2.72668452       0.00000000
Si       2.72740214      -0.02730204      -2.69322057       0.00000000
