10
Lattice="16.290000149 0.0 0.0 0.0 16.290000149 0.0 0.0 0.0 29.1751946751" Properties=species:S:1:pos:R:3:initial_magmoms:R:1 pbc="T T T"
H        1.98969320      -0.09751194      -1.06859986       0.00000000
Si       1.02908818      -1.33602436       1.61464280       0.00000000
Si       0.75842983       1.86820238      -1.28385444       0.00000000
Si      -0.76636306      -2.04232619      -1.00806133       0.00000000
Si      -1.07038333       1.11120607       1.86729998       0.00000000
H       -1.22603428       1.24194961      -2.35767666       0.00000000
H       -3.01285182       0.03665250      -1.28435042       0.00000000
H       -1.86517244       1.67990627      -2.41261355       0.00000000
H        2.32849262      -0.79182433       2.54010915       0.00000000
Si      -1.02105721       3.41754429      -0.64967324       0.00000000
