10
Lattice="16.290000149 0.0 0.0 0.0 16.290000149 0.0 0.0 0.0 29.1751946751" Properties=species:S:1:pos:R:3:initial_magmoms:R:1 pbc="T T T"
Si       1.40009293       1.41668593       1.25660481       0.00000000
Si      -1.26105778       1.39214015      -1.43028474       0.00000000
Si       1.43005024      -1.28202301      -1.41155427       0.00000000
Si      -1.29704239      -1.58975740       1.27755260       0.00000000
Si      -2.52754013      -2.72710892      -0.34826430       0.00000000
Si       0.28194732      -2.67641444       2.59915974       0.00000000
Si      -2.58683573       2.78589954      -0.06692790       0.00000000
Si       2.86848169       0.11776090       2.52345011       0.00000000
Si      -2.56764611       0.07802910      -2.87652832       0.00000000
Si       2.86811852      -2.63383238      -0.12615354       0.00000000
