10
Lattice="16.290000149 0.0 0.0 0.0 16.290000149 0.0 0.0 0.0 29.1751946751" Properties=species:S:1:pos:R:3:initial_magmoms:R:1 pbc="T T T"
Si       0.90277552      -0.74049454      -0.97774830       0.00000000
Si      -1.07751835       1.71525557       0.78868516       0.00000000
Si      -1.91164781      -0.28214280       1.88001453       0.00000000
Si      -1.32737437       2.22845573      -1.50984550       0.00000000
Si       2.30494152      -1.91097992       0.48375390       0.00000000
Si      -0.68823622      -1.87170473      -2.32006983       0.00000000
Si       2.05151375       0.90487693      -2.15423802       0.00000000
Si       0.86392387       2.56691306       1.85221349       0.00000000
Si      -0.48430170      -1.64928107       3.21454045       0.00000000
Si      -3.22001175      -1.72875998       0.50957395       0.00000000
