10
Lattice="16.290000149 0.0 0.0 0.0 16.290000149 0.0 0.0 0.0 29.1751946751" Properties=species:S:1:pos:R:3:initial_magmoms:R:1 pbc="T T T"
Si       0.62268526      -1.30370174       0.44509677       0.00000000
Si      -1.55276770       1.41380911       0.58157833       0.00000000
H        2.01336257       0.35764695      -1.36636189       0.00000000
Si      -0.04170240       2.64798839      -0.75429548       0.00000000
Si       1.12602997       1.23992965      -2.21177151       0.00000000
Si      -2.85325869      -0.26510346      -0.53895337       0.00000000
Si      -0.20354355       1.39067731       2.60216479       0.00000000
Si      -1.59848884      -1.53336142      -2.11695213       0.00000000
Si      -0.21882357      -2.97315309      -0.94658919       0.00000000
Si       2.93382903      -1.22140792       0.09458598       0.00000000
