10
Lattice="16.290000149 0.0 0.0 0.0 16.290000149 0.0 0.0 0.0 29.1751946751" Properties=species:S:1:pos:R:3:initial_magmoms:R:1 pbc="T T T"
Si       1.32093494      -1.33688773      -1.40604016       0.00000000
Si       1.39217762       1.37337733       1.31405077       0.00000000
Si      -1.33977106       1.36560700      -1.37563960       0.00000000
Si      -1.35615880      -1.34755768       1.39191936       0.00000000
Si      -0.01249443       2.69218316       2.62775143       0.00000000
Si       2.65036673      -2.69606018      -0.03988249       0.00000000
Si      -2.69967656      -2.67481802      -0.01502523       0.00000000
Si      -2.72329706       2.70876638      -0.03932816       0.00000000
Si       2.67125051       0.02871927      -2.77047649       0.00000000
Si       0.03527209      -2.70238070       2.74223490       0.00000000
