10
Lattice="16.290000149 0.0 0.0 0.0 16.290000149 0.0 0.0 0.0 29.1751946751" Properties=species:S:1:pos:R:3:initial_magmoms:R:1 pbc="T T T"
Si      -1.27676134      -0.07771959      -0.82422842       0.00000000
Si       2.34286040      -0.23817609      -0.95858020       0.00000000
Si       2.18670446       0.18326250       1.39419503       0.00000000
Si       1.47636271       1.82203652      -1.75768878       0.00000000
H        1.22508946       2.63845874      -0.51342508       0.00000000
Si       0.66042919      -1.19194746       2.66550414       0.00000000
Si      -2.64109610      -1.47105380       0.47424279       0.00000000
Si      -0.78765409      -2.63508671       1.39431173       0.00000000
Si      -2.04705843       2.21219831      -0.68955573       0.00000000
Si      -0.66231883      -1.57145722      -2.62045764       0.00000000
