10
Lattice="16.28999089631971 0.0 0.0 0.0 16.28999089631971 0.0 0.0 0.0 34.64500226677339" Properties=species:S:1:pos:R:3:initial_magmoms:R:1 pbc="T T T"
Si      -1.35650088       1.35928647      -1.36418237       0.00000000
Si       1.35998694      -1.35806798      -1.36400915       0.00000000
Si      -1.36155078      -1.37024801       1.37111138       0.00000000
Si       1.36805049       1.37536470       1.37197750       0.00000000
Si       2.70956457      -2.71483343      -0.00564714       0.00000000
Si       2.71000440       2.71552671      -0.00571643       0.00000000
Si      -2.71665072       2.71327869      -0.00647862       0.00000000
Si      -2.71336014      -2.71710394      -0.00800300       0.00000000
Si      -2.71432125      -0.00065160      -2.72126251       0.00000000
Si       0.00094482       2.71479366      -2.72122787       0.00000000
