10
Lattice="16.28999089631971 0.0 0.0 0.0 16.28999089631971 0.0 0.0 0.0 34.64500226677339" Properties=species:S:1:pos:R:3:initial_magmoms:R:1 pbc="T T T"
Si       2.35379097      -0.07257195      -0.28758832       0.00000000
Si      -0.51168519      -0.45882414       2.32232509       0.00000000
Si      -0.75005676      -2.25644682      -0.58442687       0.00000000
Si      -1.48377465       1.87093908       0.62922288       0.00000000
Si       0.76945815       0.52587378      -2.71381383       0.00000000
Si      -0.89516808       1.76635728       2.98435681       0.00000000
Si       3.13321860       2.07935334       0.31953103       0.00000000
Si       2.62668105      -1.14670197      -2.55749550       0.00000000
Si       1.37121075      -3.57760070      -0.32053574       0.00000000
Si       3.19440384      -2.03658069       0.72155187       0.00000000
