10
Lattice="16.28999089631971 0.0 0.0 0.0 16.28999089631971 0.0 0.0 0.0 34.64500226677339" Properties=species:S:1:pos:R:3:initial_magmoms:R:1 pbc="T T T"
Si      -1.14378769       1.52073340       1.35070546       0.00000000
Si       1.34936260       1.36348603      -1.36882480       0.00000000
Si      -1.36773087      -1.34911271      -1.37034919       0.00000000
Si       1.50612127      -1.25155223       1.42734025       0.00000000
Si      -2.41653420      -0.03370238       2.43942526       0.00000000
Si       2.52222631       0.41171020       2.83579896       0.00000000
Si      -2.70713151      -2.70641475       0.01015099       0.00000000
Si      -0.00827695      -2.70380835      -2.72909229       0.00000000
Si       2.73324697      -2.70095760       0.00672113       0.00000000
Si      -2.70911889       2.72782240       0.00062361       0.00000000
