10
Lattice="16.28999089631971 0.0 0.0 0.0 16.28999089631971 0.0 0.0 0.0 34.64500226677339" Properties=species:S:1:pos:R:3:initial_magmoms:R:1 pbc="T T T"
Si       1.33977105       1.35330804       1.37973799       0.00000000
Si      -1.37138994      -1.35827649       1.38254423       0.00000000
Si       1.50522858      -1.24598952      -1.42942588       0.00000000
Si      -1.21283937       1.22637636      -1.70778130       0.00000000
Si      -2.12867946      -0.78622056      -2.69115076       0.00000000
Si      -0.15736140      -2.25098478      -2.76191641       0.00000000
Si       0.71136801       2.33028450      -2.90118939       0.00000000
Si      -2.71912680       2.71098180      -0.02868261       0.00000000
Si       2.70345582      -0.00208512       2.74066373       0.00000000
Si       2.72608263      -2.71985985      -0.00156249       0.00000000
