10
Lattice="16.28999089631971 0.0 0.0 0.0 16.28999089631971 0.0 0.0 0.0 34.64500226677339" Properties=species:S:1:pos:R:3:initial_magmoms:R:1 pbc="T T T"
Si       1.35744570       1.35550719      -1.35704550       0.00000000
Si      -1.36014984       1.35399222       1.35770375       0.00000000
Si      -1.35782037      -1.35993807      -1.35708014       0.00000000
Si       1.35650088      -1.35928647       1.36418237       0.00000000
Si      -2.71290402       2.71339272      -0.00031181       0.00000000
Si       0.00011403       2.71246419      -2.71502641       0.00000000
Si       2.71414206      -0.00171045      -2.71422957       0.00000000
Si      -2.71270854      -2.71573522      -0.00069290       0.00000000
Si      -2.71490769      -0.00281817      -2.71454138       0.00000000
Si      -0.00073305      -2.71698467      -2.71429886       0.00000000
