10
Lattice="16.28999089631971 0.0 0.0 0.0 16.28999089631971 0.0 0.0 0.0 34.64500226677339" Properties=species:S:1:pos:R:3:initial_magmoms:R:1 pbc="T T T"
Si      -1.34602641      -1.33380891       1.38341036       0.00000000
Si      -1.35275418       1.35940050      -1.35801556       0.00000000
Si       1.36014984      -1.35399222      -1.35770375       0.00000000
Si       1.34408790       1.36502055       1.37918367       0.00000000
Si      -2.71383255       2.71065600       0.00401882       0.00000000
Si      -2.71278999       0.00110772      -2.71443744       0.00000000
Si       0.00232947      -2.71393029      -2.71478389       0.00000000
Si      -2.71186146      -2.71687878       0.00284089       0.00000000
Si       2.71665072      -2.71327869       0.00647862       0.00000000
Si       0.00250866       2.71570590      -2.71474925       0.00000000
