10
Lattice="16.28999089631971 0.0 0.0 0.0 16.28999089631971 0.0 0.0 0.0 34.64500226677339" Properties=species:S:1:pos:R:3:initial_magmoms:R:1 pbc="T T T"
Si      -0.43085421       0.16410546      -2.29561378       0.00000000
Si       0.61190127      -2.30604498       0.34762815       0.00000000
Si      -1.70606799       0.92681955       1.44396986       0.00000000
Si       1.96051779       1.41543810       0.19435857       0.00000000
Si       0.52841502      -1.82894346      -3.16922264       0.00000000
Si      -1.11368214      -0.29418111       3.51664292       0.00000000
Si       0.81200763       2.05289838      -2.97836322       0.00000000
Si      -2.60537373       0.98324811      -2.47694582       0.00000000
Si       1.94248476      -2.17789155       2.33763819       0.00000000
Si       1.92925728      -2.86389603      -1.58521761       0.00000000
