10
Lattice="16.28999089631971 0.0 0.0 0.0 16.28999089631971 0.0 0.0 0.0 34.64500226677339" Properties=species:S:1:pos:R:3:initial_magmoms:R:1 pbc="T T T"
Si      -0.57015000      -1.89211608       1.21839612       0.00000000
Si      -1.33058349      -0.12815343      -1.99001004       0.00000000
Si       2.37855177      -0.40378023      -0.14928540       0.00000000
Si      -0.64234728       1.91068668       1.43859988       0.00000000
Si       0.67179960      -3.33876582      -0.34360932       0.00000000
Si      -0.16412175      -1.04298354       3.48032081       0.00000000
Si      -2.78565516      -2.37229641       0.54825747       0.00000000
Si      -1.94248476       2.17789155      -2.33763819       0.00000000
Si      -3.05616690       1.88371044       1.17900473       0.00000000
Si       2.52019332      -2.64209139       0.98911537       0.00000000
