10
Lattice="16.28999089631971 0.0 0.0 0.0 16.28999089631971 0.0 0.0 0.0 34.64500226677339" Properties=species:S:1:pos:R:3:initial_magmoms:R:1 pbc="T T T"
Si       1.49636682       1.38895056      -1.08539388       0.00000000
Si      -0.96749568      -1.67115852      -1.29530807       0.00000000
Si      -1.58908950       1.33810947       1.05805896       0.00000000
Si       0.97059078      -1.29086847       1.68582675       0.00000000
Si      -2.16331200      -0.04699665       2.89279002       0.00000000
Si      -2.93871926      -2.13024330      -0.12399453       0.00000000
Si       3.53885589       1.15085592       0.06485548       0.00000000
Si      -3.21947904       1.87919811      -0.55276132       0.00000000
Si       0.64682703      -3.39017706      -1.56799903       0.00000000
Si       1.53503928       0.04453686       3.54771950       0.00000000
