10
Lattice="16.28999089631971 0.0 0.0 0.0 16.28999089631971 0.0 0.0 0.0 34.64500226677339" Properties=species:S:1:pos:R:3:initial_magmoms:R:1 pbc="T T T"
Si       1.69272648      -0.91924470      -1.47390316       0.00000000
Si      -1.96051779      -1.41543810      -0.19435857       0.00000000
Si      -0.58406166       1.97286561      -1.31082904       0.00000000
Si       0.45646209       0.22432959       2.50532009       0.00000000
Si      -1.14851016       0.63746028      -3.17272179       0.00000000
Si      -2.39137200      -1.25133264      -2.48997235       0.00000000
Si       0.84761757      -0.44054676      -3.67025895       0.00000000
Si      -1.03045653       2.02380444       3.08358015       0.00000000
Si      -2.64906351       2.79546174      -0.47054868       0.00000000
Si      -3.66658578      -0.48861855       1.24961129       0.00000000
