10
Lattice="16.28999089631971 0.0 0.0 0.0 16.28999089631971 0.0 0.0 0.0 34.64500226677339" Properties=species:S:1:pos:R:3:initial_magmoms:R:1 pbc="T T T"
Si      -1.35640314      -1.35586557      -1.35777304       0.00000000
Si       1.35713619      -1.35711990       1.35714943       0.00000000
Si      -1.35782037       1.35810294       1.35711479       0.00000000
Si       1.35837423       1.35910728      -1.35652582       0.00000000
Si       2.71256193      -0.00488700      -2.71540751       0.00000000
Si       2.71427238       0.00346977       2.71450673       0.00000000
Si       0.00115659      -2.71406061       2.71474925       0.00000000
Si       2.71469592      -2.71445157      -0.00034645       0.00000000
Si      -2.71469429       0.00239463       2.71467996       0.00000000
Si       2.71422351       2.71559091       0.00010394       0.00000000
