10
Lattice="16.28999089631971 0.0 0.0 0.0 16.28999089631971 0.0 0.0 0.0 34.64500226677339" Properties=species:S:1:pos:R:3:initial_magmoms:R:1 pbc="T T T"
Si      -1.35617508       1.35271540       1.35607544       0.00000000
Si       1.35782037       1.35436318      -1.35721872       0.00000000
Si      -1.35713619      -1.36058967      -1.35735730       0.00000000
Si       1.35941679      -1.36270737       1.36265799       0.00000000
Si      -2.68744275       0.00177561       2.73598665       0.00000000
Si      -2.71202436       2.71337058      -0.00079684       0.00000000
Si      -0.00004887       2.71212114      -2.71440280       0.00000000
Si      -2.71427238      -0.00346977      -2.71450673       0.00000000
Si       2.71717200       2.71175136       0.00006929       0.00000000
Si       2.71562445      -0.00366525      -2.71461067       0.00000000
