10
Lattice="16.28999089631971 0.0 0.0 0.0 16.28999089631971 0.0 0.0 0.0 34.64500226677339" Properties=species:S:1:pos:R:3:initial_magmoms:R:1 pbc="T T T"
Si       0.03766248      -1.91725155       1.51703621       0.00000000
Si      -2.12126751       1.32115388      -0.26389113       0.00000000
Si      -0.43043067      -1.30898295      -2.15384635       0.00000000
Si       1.82319309       1.54102001       1.04208761       0.00000000
Si       1.25547030       2.43089873      -2.23695976       0.00000000
Si      -1.78631253      -1.22292288       2.83493283       0.00000000
Si       0.98258022       3.50502875       0.03294742       0.00000000
Si       0.37305729       0.47149322      -3.59494067       0.00000000
Si      -3.30872706       0.23498325       1.58521761       0.00000000
Si      -0.55485369      -3.67137504       0.04607788       0.00000000
