10
Lattice="16.28999089631971 0.0 0.0 0.0 16.28999089631971 0.0 0.0 0.0 34.64500226677339" Properties=species:S:1:pos:R:3:initial_magmoms:R:1 pbc="T T T"
Si       1.28212074       1.92500559      -0.55490931       0.00000000
Si      -0.86239260      -0.07714944      -2.23027327       0.00000000
Si       1.59527970      -1.73600738       0.57787896       0.00000000
Si      -1.56449160       0.11158650       1.88344196       0.00000000
Si       2.10507525      -0.63780237       2.67397206       0.00000000
Si       1.13002101      -0.93478536      -3.23889378       0.00000000
Si       0.10037898      -3.59240831       0.56422882       0.00000000
Si      -0.36719289       3.63104100      -0.46483226       0.00000000
Si       2.42781273       1.00664055      -2.60610246       0.00000000
Si      -0.09096336      -0.60022134       3.65795996       0.00000000
