10
Lattice="16.28999089631971 0.0 0.0 0.0 16.28999089631971 0.0 0.0 0.0 34.64500226677339" Properties=species:S:1:pos:R:3:initial_magmoms:R:1 pbc="T T T"
Si      -1.42667820      -1.17188631       1.61819967       0.00000000
Si      -2.08303488      -0.12671991      -1.35780769       0.00000000
Si       1.24017399      -1.29386583      -1.74364929       0.00000000
Si       2.34634644       0.25707249       0.95984032       0.00000000
Si      -0.93056625       2.44954359       0.01593671       0.00000000
Si       1.65472191       0.63478872       3.18526329       0.00000000
Si       0.06133185      -1.09638216       3.49225283       0.00000000
Si      -3.10700799       1.88920017      -0.77286114       0.00000000
Si      -1.27990530       0.49303314      -3.47780585       0.00000000
Si       2.96640900       0.24654915      -2.33012022       0.00000000
