10
Lattice="16.28999089631971 0.0 0.0 0.0 16.28999089631971 0.0 0.0 0.0 34.64500226677339" Properties=species:S:1:pos:R:3:initial_magmoms:R:1 pbc="T T T"
Si       1.34109054       1.33726239       1.37292678       0.00000000
Si      -1.37629323      -1.37803626       1.37375826       0.00000000
Si       1.46592081      -1.28295153      -1.38380878       0.00000000
Si      -1.28319588       1.40621796      -1.47031047       0.00000000
Si      -2.00469627      -0.40105980      -2.90716913       0.00000000
Si      -0.10726965      -2.23567218      -2.93031200       0.00000000
Si       2.71262709       2.69998605      -0.03829661       0.00000000
Si      -2.73246831       2.69259039      -0.01651875       0.00000000
Si      -0.01184283       2.69752626       2.73478793       0.00000000
Si       2.70216891      -0.01770723       2.73523832       0.00000000
