10
Lattice="16.28999089631971 0.0 0.0 0.0 16.28999089631971 0.0 0.0 0.0 34.64500226677339" Properties=species:S:1:pos:R:3:initial_magmoms:R:1 pbc="T T T"
Si       1.35488817       1.35628911       1.35662976       0.00000000
Si      -1.35956340      -1.35923760       1.35617937       0.00000000
Si       1.35293337      -1.36026387      -1.36186116       0.00000000
Si      -1.35811359       1.35575154      -1.36400915       0.00000000
Si       2.71311579      -0.00182448       2.71388312       0.00000000
Si      -0.00213399       2.71332756       2.71395241       0.00000000
Si       2.71401174      -2.71523349       0.00045039       0.00000000
Si       2.71370223       2.71658556      -0.00062361       0.00000000
Si      -2.71511946      -2.71541268      -0.00090077       0.00000000
Si      -2.71674846      -0.00154755       2.71381383       0.00000000
