10
Lattice="16.28999089631971 0.0 0.0 0.0 16.28999089631971 0.0 0.0 0.0 34.64500226677339" Properties=species:S:1:pos:R:3:initial_magmoms:R:1 pbc="T T T"
Si       1.35967743      -1.35273789      -1.36290051       0.00000000
Si      -1.35812988       1.36172997      -1.36199974       0.00000000
Si      -1.37417553      -1.34860023       1.37454123       0.00000000
Si       1.37647242       1.37590227       1.37093815       0.00000000
Si      -2.56360617       0.20929392       2.80773649       0.00000000
Si       2.70839169      -2.71137276      -0.00388024       0.00000000
Si       0.02046024      -2.63756277       2.78539045       0.00000000
Si       2.70881523       2.71982727      -0.00526604       0.00000000
Si      -0.00066789      -2.71210581      -2.71939168       0.00000000
Si      -2.71826343      -2.71362078      -0.00464243       0.00000000
