10
Lattice="16.28999089631971 0.0 0.0 0.0 16.28999089631971 0.0 0.0 0.0 34.64500226677339" Properties=species:S:1:pos:R:3:initial_magmoms:R:1 pbc="T T T"
Si      -0.69172227       1.45802016      -1.65821467       0.00000000
Si       1.95504435      -1.10302848      -0.67731017       0.00000000
Si       0.22442733       1.31486364       1.97126709       0.00000000
Si      -1.36462959      -2.01474720      -0.06225710       0.00000000
Si      -1.01529054      -0.05823675       3.43148546       0.00000000
Si       1.25366211       2.78469405      -2.03646902       0.00000000
Si       3.48786819       0.55208439      -1.15409496       0.00000000
Si       1.23567795      -2.78925525      -2.20796187       0.00000000
Si       2.88168471      -2.26123119       1.08542853       0.00000000
Si       2.51455698       1.40975289       2.56089071       0.00000000
