10
Lattice="16.28999089631971 0.0 0.0 0.0 16.28999089631971 0.0 0.0 0.0 34.64500226677339" Properties=species:S:1:pos:R:3:initial_magmoms:R:1 pbc="T T T"
Si       0.05903496       1.12093119      -2.01464265       0.00000000
Si      -1.58263866      -1.68366924       0.39290919       0.00000000
Si      -0.73461384       1.63246977       1.59419067       0.00000000
Si       2.29241025      -0.73122552       0.30068414       0.00000000
Si       0.68732397       0.55011330       3.18238775       0.00000000
Si       2.68662825       0.82813473       2.00480347       0.00000000
Si       1.60428807       2.82321990      -1.24583498       0.00000000
Si       0.07420095      -0.65770875      -3.66152840       0.00000000
Si      -2.21469066      -1.42452792       2.62959179       0.00000000
Si      -3.52996155      -1.06906383      -0.70142311       0.00000000
