10
Lattice="16.28999089631971 0.0 0.0 0.0 16.28999089631971 0.0 0.0 0.0 34.64500226677339" Properties=species:S:1:pos:R:3:initial_magmoms:R:1 pbc="T T T"
Si       0.93685419       1.75500382       1.18957631       0.00000000
Si      -0.46050201       0.14465520      -2.29286300       0.00000000
Si      -1.82500128      -0.94778478       1.19104180       0.00000000
Si       1.80716373      -1.83197340      -0.21856162       0.00000000
Si       2.02320171       0.24387759       2.62327738       0.00000000
Si      -2.73430908      -1.09237482      -1.96571006       0.00000000
Si      -0.69090777      -2.46775581       2.60554260       0.00000000
Si       2.80784214       2.55442580      -0.20061550       0.00000000
Si       3.46862970      -0.96563862       1.23105680       0.00000000
Si      -2.68374492      -2.74580982      -0.19884861       0.00000000
