10
Lattice="16.28999089631971 0.0 0.0 0.0 16.28999089631971 0.0 0.0 0.0 34.64500226677339" Properties=species:S:1:pos:R:3:initial_magmoms:R:1 pbc="T T T"
Si      -0.93685419      -1.75500382      -1.18957631       0.00000000
Si       1.08634752      -1.51112623       1.43370107       0.00000000
Si      -1.61300322       1.19292322       1.39725451       0.00000000
Si       1.87098795       0.79942198      -1.39019181       0.00000000
Si       2.55852369       2.63932861      -0.00552935       0.00000000
Si       2.43188523      -0.16144042       2.78347458       0.00000000
Si       2.53177551      -2.72064244       0.04148048       0.00000000
Si      -0.28018800       2.55247033       2.77869357       0.00000000
Si      -2.76185547      -2.70278860       0.00146548       0.00000000
Si      -2.83385727       2.66679355      -0.03060888       0.00000000
