10
Lattice="16.28999089631971 0.0 0.0 0.0 16.28999089631971 0.0 0.0 0.0 34.64500226677339" Properties=species:S:1:pos:R:3:initial_magmoms:R:1 pbc="T T T"
Si       1.45442007      -1.17961592       1.43911955       0.00000000
Si      -2.19603861       0.03758103       0.98398790       0.00000000
Si      -0.50979555      -1.09820501      -2.09609310       0.00000000
Si       1.40646231       1.98764064      -0.23277990       0.00000000
Si      -2.10507525       0.63780237      -2.67397206       0.00000000
Si       3.59324235      -0.84849723       0.41428517       0.00000000
Si       3.44132507       1.01999835      -1.06529977       0.00000000
Si      -3.66956685       0.74938887      -0.79053010       0.00000000
Si       1.43317791       2.97735588       1.95896810       0.00000000
Si       0.76717755      -3.42108638       1.78612409       0.00000000
