10
Lattice="16.28999089631971 0.0 0.0 0.0 16.28999089631971 0.0 0.0 0.0 34.64500226677339" Properties=species:S:1:pos:R:3:initial_magmoms:R:1 pbc="T T T"
Si       1.61587256       0.92202052       1.43598907       0.00000000
Si      -0.99932634      -1.67550373       1.35001398       0.00000000
Si       1.60942498      -0.48913561      -1.73824467       0.00000000
Si      -1.66011390       1.84456068      -0.08165832       0.00000000
Si      -1.24537050      -2.39030893      -2.31879130       0.00000000
Si       0.26285882       2.25879909       2.74213064       0.00000000
Si      -2.66079231      -2.54183851      -0.09960444       0.00000000
Si       2.74345496       2.45921496       0.08508198       0.00000000
Si      -2.44475433      -0.46598752       2.74223457       0.00000000
Si      -3.53110185       1.04513871       1.30853350       0.00000000
