10
Lattice="16.28999089631971 0.0 0.0 0.0 16.28999089631971 0.0 0.0 0.0 34.64500226677339" Properties=species:S:1:pos:R:3:initial_magmoms:R:1 pbc="T T T"
Si       1.35612033       1.35496962      -1.35957458       0.00000000
Si       1.35500246      -1.35938421       1.35853523       0.00000000
Si      -1.36282140       1.35558864       1.35759982       0.00000000
Si      -1.35835794      -1.35987291      -1.35881239       0.00000000
Si      -2.71357191       2.71497285      -0.00176690       0.00000000
Si      -0.00063531       2.71226871      -2.71634292       0.00000000
Si      -2.71437012      -2.71497285      -0.00155903       0.00000000
Si       2.71517226       2.71446786      -0.00135116       0.00000000
Si       2.71364914      -0.00224802      -2.71637757       0.00000000
Si       2.71517877      -2.71652040       0.00003465       0.00000000
