10
Lattice="16.28999089631971 0.0 0.0 0.0 16.28999089631971 0.0 0.0 0.0 34.64500226677339" Properties=species:S:1:pos:R:3:initial_magmoms:R:1 pbc="T T T"
Si      -1.35623698      -1.35632169       1.35853523       0.00000000
Si      -1.35776661       1.35795069      -1.35787698       0.00000000
Si       1.35803214      -1.35791811      -1.35780769       0.00000000
Si       1.36003581       1.35829278       1.35642189       0.00000000
Si       2.71278999      -0.00110772       2.71443744       0.00000000
Si      -2.71352436       0.00105885      -2.71440280       0.00000000
Si      -0.00104256       2.70954828       2.71845627       0.00000000
Si       0.00065160      -2.71391400      -2.71526893       0.00000000
Si      -2.71479372      -2.71487511      -0.00058897       0.00000000
Si       2.71529865       2.71459818      -0.00031181       0.00000000
