10
Lattice="16.28999089631971 0.0 0.0 0.0 16.28999089631971 0.0 0.0 0.0 34.64500226677339" Properties=species:S:1:pos:R:3:initial_magmoms:R:1 pbc="T T T"
Si       1.79392715       0.92600505      -1.22341965       0.00000000
Si      -0.44621568      -2.34603693       0.31305242       0.00000000
Si      -1.59609420       0.28186587      -1.82080376       0.00000000
Si       0.26239706       0.97107948       2.23481177       0.00000000
Si      -2.77122222      -1.93997610       0.88448740       0.00000000
Si      -3.53528838      -0.35090289      -0.73752322       0.00000000
Si      -0.47293128      -3.33575217      -1.87869559       0.00000000
Si       2.07740573       3.23952714      -0.51787378       0.00000000
Si      -1.19283525      -1.61569107      -3.35128223       0.00000000
Si       2.69323289       0.86957649       2.69749603       0.00000000
