10
Lattice="16.28999089631971 0.0 0.0 0.0 16.28999089631971 0.0 0.0 0.0 34.64500226677339" Properties=species:S:1:pos:R:3:initial_magmoms:R:1 pbc="T T T"
Si      -0.82127664      -1.72828755       1.40548413       0.00000000
Si       1.80831447       1.05508701       1.28225179       0.00000000
Si      -1.78849539       1.78036668      -0.02099488       0.00000000
Si       0.60995691      -0.34603218      -2.55254126       0.00000000
Si       2.74407398      -0.73298484      -1.73505733       0.00000000
Si      -0.45688563       1.75457961      -2.95584396       0.00000000
Si       0.41791995       2.26409823       2.80911332       0.00000000
Si      -2.30303133      -0.47110680       2.82133262       0.00000000
Si      -0.77950908       3.59603379       1.17045577       0.00000000
Si      -1.50881238      -3.56819418       0.02082166       0.00000000
