10
Lattice="16.28999089631971 0.0 0.0 0.0 16.28999089631971 0.0 0.0 0.0 34.64500226677339" Properties=species:S:1:pos:R:3:initial_magmoms:R:1 pbc="T T T"
Si      -0.02966409       0.43748424       2.27538109       0.00000000
Si      -0.84300750      -2.17680012      -0.23080513       0.00000000
Si      -1.05474492       1.69489305      -1.25130889       0.00000000
Si       2.34459431      -0.14885802      -0.36935058       0.00000000
Si       1.35880170      -1.45091772       2.83074078       0.00000000
Si       1.60186153      -1.08905166      -2.96585637       0.00000000
Si       0.42176669      -3.24197064       1.53342330       0.00000000
Si       1.07804192       2.55852369       2.40197399       0.00000000
Si       3.09549815       2.05157889      -0.78218065       0.00000000
Si      -3.02743134       0.80720208      -2.17515304       0.00000000
