10
Lattice="16.28999089631971 0.0 0.0 0.0 16.28999089631971 0.0 0.0 0.0 34.64500226677339" Properties=species:S:1:pos:R:3:initial_magmoms:R:1 pbc="T T T"
Si       1.33940065       1.35730205      -1.38050018       0.00000000
Si      -1.37399634      -1.35830907      -1.38018837       0.00000000
Si      -1.35387819       1.40301194       1.36795868       0.00000000
Si       1.52638344      -1.26136728       1.46645448       0.00000000
Si       0.29059731       2.67271237       2.42927427       0.00000000
Si      -0.13561425      -2.35152666       2.79682331       0.00000000
Si       2.69987269      -2.70987408      -0.01701071       0.00000000
Si       2.70713151       2.70641475      -0.01015099       0.00000000
Si      -2.74269843      -2.69412165      -0.01001241       0.00000000
Si       2.69885457       0.00260640      -2.73924328       0.00000000
