10
Lattice="16.28999089631971 0.0 0.0 0.0 16.28999089631971 0.0 0.0 0.0 34.64500226677339" Properties=species:S:1:pos:R:3:initial_magmoms:R:1 pbc="T T T"
Si       2.32855776       0.02350647       0.47248880       0.00000000
Si      -0.72314568      -1.89866466       1.30646377       0.00000000
Si      -0.94115475       1.84788873       1.36300444       0.00000000
Si      -0.56350368      -1.34084619      -2.52731968       0.00000000
Si       1.66016277       2.30742963      -2.26190417       0.00000000
Si      -1.77862528      -3.25073466      -0.24539069       0.00000000
Si       3.15708345       2.12905413      -0.29597242       0.00000000
Si      -1.03443781       0.91279386       3.59306984       0.00000000
Si       0.26547813       0.51601833      -3.91793621       0.00000000
Si      -2.02906937      -1.20814785       3.21637452       0.00000000
