10
Lattice="16.28999089631971 0.0 0.0 0.0 16.28999089631971 0.0 0.0 0.0 34.64500226677339" Properties=species:S:1:pos:R:3:initial_magmoms:R:1 pbc="T T T"
Si       0.96749568       1.67115852       1.29530807       0.00000000
Si      -1.97122358      -0.45908478       1.17131354       0.00000000
Si       1.61432271      -1.71901854      -0.27269097       0.00000000
Si      -0.98543097       0.84297492      -2.02877782       0.00000000
Si       1.93808646       0.38029005       2.98113482       0.00000000
Si      -2.90825859      -2.25013770      -0.12600394       0.00000000
Si      -3.35968937       1.42931718       0.61595384       0.00000000
Si       3.21175269      -1.03778703      -1.81144960       0.00000000
Si      -1.47929490      -0.68936022       3.48255222       0.00000000
Si      -3.33002528       0.99183294      -1.65942725       0.00000000
