10
Lattice="16.28999089631971 0.0 0.0 0.0 16.28999089631971 0.0 0.0 0.0 34.64500226677339" Properties=species:S:1:pos:R:3:initial_magmoms:R:1 pbc="T T T"
Si      -1.83069105       0.90912861       1.10652735       0.00000000
Si       0.57422250       1.38510612      -1.83473106       0.00000000
Si       1.63334943       0.91412964       1.49520984       0.00000000
Si      -0.28347858      -2.31352209      -0.70554587       0.00000000
Si       3.13390278      -1.24387182      -1.20696326       0.00000000
Si       2.16331200       0.04699665      -2.89279002       0.00000000
Si       0.98124444       3.24153081       1.42789457       0.00000000
Si      -3.56370533       0.85222764      -0.41501271       0.00000000
Si       1.89104094      -3.13266474      -0.52421382       0.00000000
Si       1.41885900       3.34362024      -0.80816442       0.00000000
