10
Lattice="16.28999089631971 0.0 0.0 0.0 16.28999089631971 0.0 0.0 0.0 34.64500226677339" Properties=species:S:1:pos:R:3:initial_magmoms:R:1 pbc="T T T"
Si      -1.62165877      -0.70747470      -1.66697986       0.00000000
Si       2.02354543      -0.79498458      -1.22490938       0.00000000
Si      -0.22231940       2.59796178      -0.63116300       0.00000000
Si      -0.39413329      -1.32198237       2.44046461       0.00000000
Si      -3.47230051       0.57521619      -0.69861686       0.00000000
Si      -2.59532836       2.48839524       0.41941263       0.00000000
Si      -0.97410095      -2.99038788      -2.08226973       0.00000000
Si       1.45673488      -3.09189087      -1.61958547       0.00000000
Si       2.12648194       1.37823174       2.85203573       0.00000000
Si      -0.98978333       0.18718839      -3.72842794       0.00000000
