10
Lattice="16.28999089631971 0.0 0.0 0.0 16.28999089631971 0.0 0.0 0.0 34.64500226677339" Properties=species:S:1:pos:R:3:initial_magmoms:R:1 pbc="T T T"
Si       1.35738054       1.35599589       1.35746124       0.00000000
Si      -1.35779594      -1.35829441       1.35787698       0.00000000
Si      -1.36063854       1.35519768      -1.35884704       0.00000000
Si       1.35962856      -1.35804517      -1.35773840       0.00000000
Si      -2.71468343       0.01795158      -2.70487888       0.00000000
Si      -2.71439028      -2.71302066      -0.00017323       0.00000000
Si      -2.71417596       2.71497285       0.00086613       0.00000000
Si      -0.00065160       2.71391400       2.71526893       0.00000000
Si       2.71446786      -0.00112401       2.71492247       0.00000000
Si       2.71536381       2.71454931       0.00003465       0.00000000
