10
Lattice="16.28999089631971 0.0 0.0 0.0 16.28999089631971 0.0 0.0 0.0 34.64500226677339" Properties=species:S:1:pos:R:3:initial_magmoms:R:1 pbc="T T T"
Si      -1.87610792      -1.34607528       0.33806612       0.00000000
Si       1.70051538      -1.41639921       0.88691255       0.00000000
Si      -0.59796194       1.30180950       1.98373929       0.00000000
Si       0.28147719       0.35082144      -2.40807152       0.00000000
Si      -3.26882147       0.50181345      -0.39412177       0.00000000
Si      -0.15204378      -0.52035147       3.55038717       0.00000000
Si       2.99394138       0.09009999       2.18159701       0.00000000
Si       0.98868636       3.08919392       1.93873541       0.00000000
Si       0.72166068      -2.54544282       2.72202470       0.00000000
Si      -1.41112616      -3.40907346      -0.93125818       0.00000000
