10
Lattice="16.28999089631971 0.0 0.0 0.0 16.28999089631971 0.0 0.0 0.0 34.45770212530097" Properties=species:S:1:pos:R:3:initial_magmoms:R:1 pbc="T T T"
Si      -0.33816411       2.21825817       0.60924697       0.00000000
Si       0.42088473       0.37655964      -2.33020341       0.00000000
Si       2.22690816      -0.52639506       0.73656825       0.00000000
Si      -1.68555888      -1.58483781       0.65869380       0.00000000
Si       1.68335973       3.16215520      -0.27972778       0.00000000
Si       1.73755656      -1.54994463      -2.77587958       0.00000000
Si      -0.92084112      -3.56070078      -0.42072878       0.00000000
Si      -1.79141293       0.45030447      -3.24509037       0.00000000
Si      -2.45020985       2.85655838      -0.38248071       0.00000000
Si      -0.43269498       1.99034478       3.19509222       0.00000000
