10
Lattice="16.28999089631971 0.0 0.0 0.0 16.28999089631971 0.0 0.0 0.0 34.45770212530097" Properties=species:S:1:pos:R:3:initial_magmoms:R:1 pbc="T T T"
Si      -1.23385673      -0.95061924       1.84098099       0.00000000
Si       0.26067258       2.21584725      -1.17686902       0.00000000
Si      -1.04679540      -2.01311820      -1.15333439       0.00000000
Si       1.45119465       1.61148825       1.87384332       0.00000000
Si      -2.97309509      -1.95760188       0.48881724       0.00000000
Si       2.15234883       3.31914844       0.37655398       0.00000000
Si      -0.99219132      -1.35933534      -3.71326743       0.00000000
Si       0.08827551      -2.47612887       3.29174754       0.00000000
Si      -2.61987902       0.23802948       3.31929304       0.00000000
Si      -1.65709373       3.72378553      -1.21397998       0.00000000
