10
Lattice="16.28999089631971 0.0 0.0 0.0 16.28999089631971 0.0 0.0 0.0 34.45770212530097" Properties=species:S:1:pos:R:3:initial_magmoms:R:1 pbc="T T T"
Si      -1.91776631       1.50793828      -0.03711097       0.00000000
Si      -0.26067258      -2.21584725       1.17686902       0.00000000
Si       0.09453087       0.22791339      -2.58584524       0.00000000
Si       1.89167625       1.10330119       1.55342300       0.00000000
Si       1.19052207      -0.60435900       3.05071233       0.00000000
Si       0.43069131       3.05553878       1.76271920       0.00000000
Si       0.43269498      -1.99034478      -3.19509222       0.00000000
Si      -3.45246092       1.02477688      -1.73477398       0.00000000
Si      -3.28517891       1.27784691       1.91558678       0.00000000
Si      -1.44491323       2.17119051       3.10945241       0.00000000
