10
Lattice="16.28999089631971 0.0 0.0 0.0 16.28999089631971 0.0 0.0 0.0 34.45770212530097" Properties=species:S:1:pos:R:3:initial_magmoms:R:1 pbc="T T T"
Si       1.88639829      -1.13239935       0.91760912       0.00000000
Si      -1.10115513       1.28560680       1.68005512       0.00000000
Si      -1.68088365      -1.49161014      -0.86564688       0.00000000
Si       0.53677179       1.70541639      -1.80175979       0.00000000
Si       2.90260107       0.69054939       2.01208972       0.00000000
Si      -0.31669389       3.70442745      -0.54274357       0.00000000
Si      -0.08366544       3.37321917       1.79018200       0.00000000
Si       1.11948138      -2.79503005       2.37630784       0.00000000
Si      -1.57224564      -0.15325632       3.50355774       0.00000000
Si      -3.56451590       0.14063157      -1.43506072       0.00000000
