10
Lattice="16.28999089631971 0.0 0.0 0.0 16.28999089631971 0.0 0.0 0.0 34.45770212530097" Properties=species:S:1:pos:R:3:initial_magmoms:R:1 pbc="T T T"
Si       0.76691691       1.66263070      -1.45869872       0.00000000
Si       1.33538904      -0.01418370       1.92584205       0.00000000
Si      -2.31117633       0.33596659       0.44278172       0.00000000
Si       0.33311421      -2.32485897      -0.53099349       0.00000000
Si      -0.86742621      -2.91102204       1.42823809       0.00000000
Si      -2.55893094      -1.38585450       2.05230189       0.00000000
Si       1.05158466      -2.24863806       2.65389924       0.00000000
Si       3.49990650       0.49023941       1.14627056       0.00000000
Si       2.65201200       0.69598210      -2.59539003       0.00000000
Si      -0.76227426      -2.67436092      -2.55734871       0.00000000
