10
Lattice="16.28999089631971 0.0 0.0 0.0 16.28999089631971 0.0 0.0 0.0 34.45770212530097" Properties=species:S:1:pos:R:3:initial_magmoms:R:1 pbc="T T T"
Si      -0.73122552      -1.49175675       1.69059918       0.00000000
Si       1.68088365       1.49161014       0.86564688       0.00000000
Si       0.74718972      -1.80204052      -1.47203386       0.00000000
Si      -1.88363225       1.63224171      -0.56941385       0.00000000
Si       0.15887637      -0.79084692      -3.41017731       0.00000000
Si       0.57972852       2.77721694       2.54570200       0.00000000
Si       0.48918870      -0.96745333       3.68473644       0.00000000
Si      -3.79464866       0.51435675       0.32593559       0.00000000
Si      -0.32457825      -3.71329640       0.95148106       0.00000000
Si      -3.09429527      -1.40064678       1.86226755       0.00000000
