10
Lattice="16.28999089631971 0.0 0.0 0.0 16.28999089631971 0.0 0.0 0.0 34.45770212530097" Properties=species:S:1:pos:R:3:initial_magmoms:R:1 pbc="T T T"
Si      -1.35466011       1.35609363       1.35377496       0.00000000
Si      -1.35563751      -1.35816246      -1.35735856       0.00000000
Si       1.35588186      -1.35578412       1.36166578       0.00000000
Si       1.35907470       1.35672894      -1.35777205       0.00000000
Si      -2.68225927      -0.00710244       2.72178095       0.00000000
Si      -0.00711873       2.69783577       2.72598480       0.00000000
Si      -2.71187612       2.71360449      -0.00034458       0.00000000
Si       2.71450044       2.71288773       0.00027566       0.00000000
Si      -2.71320376      -0.00110772      -2.71444146       0.00000000
Si       0.00219915       2.71391400      -2.71437254       0.00000000
