10
Lattice="16.28999089631971 0.0 0.0 0.0 16.28999089631971 0.0 0.0 0.0 34.45770212530097" Properties=species:S:1:pos:R:3:initial_magmoms:R:1 pbc="T T T"
Si       0.73528173      -1.81366344       1.30880763       0.00000000
Si       1.93513797       1.30991148       0.44512484       0.00000000
Si      -1.93297140       0.74109726       1.23065752       0.00000000
Si      -0.78750747      -0.87793326      -2.11542843       0.00000000
Si      -3.43039707      -0.78714909       0.37396965       0.00000000
Si       1.21264389       2.53605978       2.32513812       0.00000000
Si      -3.11490701      -0.55190520      -1.92091459       0.00000000
Si       1.33449309      -0.75096900       3.44032782       0.00000000
Si       2.95453359      -2.31373386       0.66996148       0.00000000
Si       3.66899670      -0.13665681       1.04241499       0.00000000
