10
Lattice="16.28999089631971 0.0 0.0 0.0 16.28999089631971 0.0 0.0 0.0 34.45770212530097" Properties=species:S:1:pos:R:3:initial_magmoms:R:1 pbc="T T T"
Si       1.37412666       1.33480260       1.34984678       0.00000000
Si       1.35330804      -1.36018242      -1.35777205       0.00000000
Si      -1.35930276       1.35583299      -1.35839229       0.00000000
Si      -1.36831113      -1.37523438       1.36793708       0.00000000
Si      -0.05142753       2.57096925       2.67836423       0.00000000
Si       2.71249677       2.71399545       0.00172289       0.00000000
Si       2.71262709      -0.00122175      -2.71547519       0.00000000
Si      -0.00174303       2.71326240      -2.71540628       0.00000000
Si       2.71370223      -2.71497285       0.00296336       0.00000000
Si      -2.71709055       2.71471221      -0.00006892       0.00000000
