10
Lattice="16.28999089631971 0.0 0.0 0.0 16.28999089631971 0.0 0.0 0.0 34.45770212530097" Properties=species:S:1:pos:R:3:initial_magmoms:R:1 pbc="T T T"
Si       0.82417626       1.91842443       1.06684551       0.00000000
Si      -1.21847571       1.32778161      -1.60569536       0.00000000
Si      -1.86587289      -0.97749774       1.36800600       0.00000000
Si       1.46236959      -1.36210464      -1.55934972       0.00000000
Si      -2.64402990       2.56394826      -0.27717791       0.00000000
Si      -3.53747124       0.77121747       0.91884960       0.00000000
Si      -2.58970275      -2.74390389      -0.08907321       0.00000000
Si       2.72184723       2.68024257      -0.24530452       0.00000000
Si       0.42860619       1.84754664       3.37771814       0.00000000
Si      -1.00945872       3.61346409       0.98652456       0.00000000
