10
Lattice="16.28999089631971 0.0 0.0 0.0 16.28999089631971 0.0 0.0 0.0 34.45770212530097" Properties=species:S:1:pos:R:3:initial_magmoms:R:1 pbc="T T T"
Si      -0.72382986      -1.76640615      -1.45707921       0.00000000
Si      -1.67159835       1.74871521      -0.44915640       0.00000000
Si       1.86587289       0.97749774      -1.36800600       0.00000000
Si       0.14167413      -0.47429964       2.56896096       0.00000000
Si      -2.09504061      -0.40475763      -2.95561105       0.00000000
Si      -1.86849558      -3.30908544       0.03587049       0.00000000
Si       0.64739718       2.30527935      -2.97370136       0.00000000
Si      -0.14893947       2.73349458       2.71912771       0.00000000
Si      -2.28638295       2.81079063       1.46562472       0.00000000
Si       2.69004915       2.89592217      -0.30116048       0.00000000
