10
Lattice="16.28999089631971 0.0 0.0 0.0 16.28999089631971 0.0 0.0 0.0 34.45770212530097" Properties=species:S:1:pos:R:3:initial_magmoms:R:1 pbc="T T T"
Si       0.29222631      -0.40325895       2.48636580       0.00000000
Si       2.09342790      -1.34702010      -0.61513924       0.00000000
Si      -1.72540422      -1.57915260      -1.06481251       0.00000000
Si      -0.17816373       2.26693269      -1.51565733       0.00000000
Si       2.60734482      -0.11039733      -2.51179560       0.00000000
Si      -3.25674567      -1.79328465       0.75658819       0.00000000
Si       1.03052169       1.43573544      -3.38853786       0.00000000
Si       1.27767357       3.78721323      -0.47348355       0.00000000
Si       1.99029591      -2.14373142       2.79452297       0.00000000
Si      -0.68716107      -3.81980952      -1.14644285       0.00000000
