10
Lattice="16.28999089631971 0.0 0.0 0.0 16.28999089631971 0.0 0.0 0.0 34.45770212530097" Properties=species:S:1:pos:R:3:initial_magmoms:R:1 pbc="T T T"
Si      -1.33837011      -1.37919285       1.34812389       0.00000000
Si       1.35716877      -1.35775521      -1.35911590       0.00000000
Si      -1.35847197       1.35571896      -1.36001181       0.00000000
Si       1.34871426       1.37893221       1.34926100       0.00000000
Si       2.60195283      -0.02673189       2.70851473       0.00000000
Si      -2.71094922       2.71495656      -0.00103373       0.00000000
Si      -2.71249677      -2.71399545      -0.00172289       0.00000000
Si       2.71362078       2.71455813      -0.00017229       0.00000000
Si      -2.71423980      -0.00073305      -2.71712916       0.00000000
Si       0.00104256       2.71435060      -2.71709470       0.00000000
