10
Lattice="16.28999089631971 0.0 0.0 0.0 16.28999089631971 0.0 0.0 0.0 34.45770212530097" Properties=species:S:1:pos:R:3:initial_magmoms:R:1 pbc="T T T"
Si      -1.08162342      -1.73801268       1.13669131       0.00000000
Si       1.39644396      -1.26557010      -1.45439150       0.00000000
Si       0.83543265       1.79180945       1.32631215       0.00000000
Si      -1.29904605       1.39364112      -1.45180717       0.00000000
Si       0.43245063       0.48402218       3.29467503       0.00000000
Si      -1.75772358      -0.28261521       3.03986018       0.00000000
Si       0.75201156      -3.43305234       1.21701226       0.00000000
Si      -2.65849542       2.65547267      -0.10003077       0.00000000
Si       2.64968253      -2.67123420      -0.09513777       0.00000000
Si      -0.97098174       3.42638063       1.29695418       0.00000000
