10
Lattice="16.28999089631971 0.0 0.0 0.0 16.28999089631971 0.0 0.0 0.0 34.45770212530097" Properties=species:S:1:pos:R:3:initial_magmoms:R:1 pbc="T T T"
Si      -0.47483721       2.16474552       0.81537306       0.00000000
Si       0.22934691      -1.65428208       1.70379649       0.00000000
Si      -2.13744348       0.07729605      -1.25350299       0.00000000
Si       2.44341855       0.09154980      -0.70941557       0.00000000
Si       0.29061360      -3.20779422      -0.15016675       0.00000000
Si       0.32925348       3.31286472      -1.19744028       0.00000000
Si      -1.52265888      -0.98477937      -3.16828411       0.00000000
Si       1.00535364       1.85746725      -3.10060914       0.00000000
Si       2.50882290      -1.28267460       2.51014163       0.00000000
Si       0.62055126       2.51424747       2.84172828       0.00000000
