10
Lattice="16.28999089631971 0.0 0.0 0.0 16.28999089631971 0.0 0.0 0.0 34.45770212530097" Properties=species:S:1:pos:R:3:initial_magmoms:R:1 pbc="T T T"
Si       1.39510818      -0.87112404       1.69287339       0.00000000
Si       0.84149253       2.22016410      -0.17418378       0.00000000
Si      -0.35670213      -1.31325093      -1.95637159       0.00000000
Si      -2.32935597      -0.27565938       0.63309171       0.00000000
Si      -2.49680088       2.05019424      -0.05123863       0.00000000
Si       0.81415791      -3.09571902       1.06894743       0.00000000
Si      -0.59593707      -3.39578082      -0.82502122       0.00000000
Si       0.47174211      -0.30431349       3.82025865       0.00000000
Si      -0.85001220       3.74533164       0.44988001       0.00000000
Si       1.65082860      -1.36220238      -3.27134715       0.00000000
