10
Lattice="16.28999089631971 0.0 0.0 0.0 16.28999089631971 0.0 0.0 0.0 34.45770212530097" Properties=species:S:1:pos:R:3:initial_magmoms:R:1 pbc="T T T"
Si      -1.28751273      -1.95572853       0.14482580       0.00000000
Si      -0.02503773       0.82986703       2.19530143       0.00000000
Si      -1.27332414       1.31399280      -1.52292791       0.00000000
Si       2.23529751      -0.50367051      -0.76451346       0.00000000
Si       0.09739791       3.25931039      -1.17204494       0.00000000
Si      -2.04656157      -0.11403000       3.08427618       0.00000000
Si      -1.70839746      -2.33228817       2.47502921       0.00000000
Si       0.02915910      -3.88223280      -0.30085037       0.00000000
Si      -1.29259521       0.16741233      -3.67122901       0.00000000
Si       2.31792039      -0.69537123      -3.06963165       0.00000000
