10
Lattice="16.28999089631971 0.0 0.0 0.0 16.28999089631971 0.0 0.0 0.0 34.45770212530097" Properties=species:S:1:pos:R:3:initial_magmoms:R:1 pbc="T T T"
Si       1.40090742      -1.29196332       1.38367392       0.00000000
Si      -1.31206176       1.45712910       1.37099004       0.00000000
Si       1.81297926       0.70169664      -1.41332621       0.00000000
Si      -1.69088571      -1.14303737      -1.41553150       0.00000000
Si       0.42077070       0.05130047      -3.35687953       0.00000000
Si      -1.20451518       1.72426881      -2.99028383       0.00000000
Si       2.72044629       2.63246889       0.02021979       0.00000000
Si       0.04479750      -2.62484258       2.75814074       0.00000000
Si      -2.66820426       0.08868113       2.75224847       0.00000000
Si      -2.68594407       2.74763919      -0.18543078       0.00000000
