10
Lattice="16.28999089631971 0.0 0.0 0.0 16.28999089631971 0.0 0.0 0.0 34.45770212530097" Properties=species:S:1:pos:R:3:initial_magmoms:R:1 pbc="T T T"
Si       0.29092311       0.06013942       2.32596511       0.00000000
Si      -1.48877568      -1.81251892      -0.19902780       0.00000000
Si      -1.40742342       1.45039155      -1.24540542       0.00000000
Si       2.34905058       0.26031746      -0.67878265       0.00000000
Si      -1.12234842       0.23023471      -3.23220318       0.00000000
Si      -1.40615280      -2.00421964      -2.50414599       0.00000000
Si       0.80547534       2.37177024       2.54628778       0.00000000
Si       2.23130646      -1.38384757       2.62819378       0.00000000
Si      -0.69296031       3.62746860      -0.87295191       0.00000000
Si      -0.44800758      -3.77383492       0.59563617       0.00000000
