10
Lattice="16.28999089631971 0.0 0.0 0.0 16.28999089631971 0.0 0.0 0.0 34.45770212530097" Properties=species:S:1:pos:R:3:initial_magmoms:R:1 pbc="T T T"
Si      -1.07406486      -1.57902393       1.44619888       0.00000000
Si       0.42350742      -1.72283205      -1.67364599       0.00000000
Si       1.69088571       1.14303737       1.41553150       0.00000000
Si      -1.90659789       1.96461212      -0.09265681       0.00000000
Si       2.11165641       1.19433784      -1.94134802       0.00000000
Si       0.48637053       2.86730618      -1.57475232       0.00000000
Si      -2.35625076      -0.13700718       2.80812308       0.00000000
Si       0.37882395       2.60016647       2.78652154       0.00000000
Si      -1.68135606      -3.45771705       0.10295210       0.00000000
Si       1.86367374      -0.79897728      -3.33020094       0.00000000
