10
Lattice="16.28999089631971 0.0 0.0 0.0 16.28999089631971 0.0 0.0 0.0 34.45770212530097" Properties=species:S:1:pos:R:3:initial_magmoms:R:1 pbc="T T T"
Si      -1.74249243       0.49741515      -1.50473424       0.00000000
Si       1.62528588      -1.67296834      -0.36659570       0.00000000
Si       1.02586275       2.16358893      -0.04386468       0.00000000
Si      -2.39296842      -0.90269406       1.48209551       0.00000000
Si      -0.48637053      -2.86730618       1.57475232       0.00000000
Si      -0.26197578       2.79111231       1.79124196       0.00000000
Si      -1.48142889       1.02337038       2.80485305       0.00000000
Si       3.01749444      -1.02257217       1.57695762       0.00000000
Si       1.20451518      -1.72426881       2.99028383       0.00000000
Si      -2.18452158       2.78371665      -1.19540727       0.00000000
