10
Lattice="16.28999089631971 0.0 0.0 0.0 16.28999089631971 0.0 0.0 0.0 34.45770212530097" Properties=species:S:1:pos:R:3:initial_magmoms:R:1 pbc="T T T"
Si      -1.35068535      -1.34990343       1.39890768       0.00000000
Si       1.36575360       1.36475991       1.39432480       0.00000000
Si       1.34957763      -1.40610393      -1.54235518       0.00000000
Si      -1.41253848       1.44883260      -1.44818222       0.00000000
Si       2.56903074       0.36163800      -2.55596626       0.00000000
Si      -2.69182476      -2.69570178       0.02404804       0.00000000
Si       2.72345994      -2.69661402       0.01406564       0.00000000
Si      -2.71086777       2.73610098       0.03384437       0.00000000
Si       2.73287556       2.72888451       0.02876186       0.00000000
Si       0.00710244      -2.70642060       2.75543926       0.00000000
