10
Lattice="16.28999089631971 0.0 0.0 0.0 16.28999089631971 0.0 0.0 0.0 34.45770212530097" Properties=species:S:1:pos:R:3:initial_magmoms:R:1 pbc="T T T"
Si       1.35681039      -1.35721764      -1.35739302       0.00000000
Si       1.35809730       1.35734796       1.35749639       0.00000000
Si      -1.35799956       1.35806472      -1.35753085       0.00000000
Si      -1.35837423      -1.35715248       1.35877133       0.00000000
Si       2.71516833      -0.00317655       2.71089231       0.00000000
Si       2.71438641      -2.71466334       0.00017229       0.00000000
Si      -0.00164529      -2.71376739      -2.71537182       0.00000000
Si      -2.71536381       0.00030951      -2.71389014       0.00000000
Si       2.71487511       2.71513575       0.00017229       0.00000000
Si       2.71541268      -0.00055386      -2.71488941       0.00000000
