10
Lattice="16.28999089631971 0.0 0.0 0.0 16.28999089631971 0.0 0.0 0.0 34.45770212530097" Properties=species:S:1:pos:R:3:initial_magmoms:R:1 pbc="T T T"
Si      -1.71203013      -0.82819989      -1.37713729       0.00000000
Si       1.90760787      -1.56102183       0.34137265       0.00000000
Si       0.92432718       1.93614795      -1.26828535       0.00000000
Si      -1.53621216       0.18889884       2.03093810       0.00000000
Si      -0.21286143      -1.94447214      -2.75065652       0.00000000
Si       1.14784227      -3.29488056      -1.22063032       0.00000000
Si      -2.60656290      -2.63855646      -0.00489300       0.00000000
Si       2.48862330       0.78734457      -2.72870696       0.00000000
Si       1.08794394      -2.48977989       2.94020845       0.00000000
Si       3.81811536      -0.59655609      -1.17128687       0.00000000
