10
Lattice="16.28999089631971 0.0 0.0 0.0 16.28999089631971 0.0 0.0 0.0 34.45770212530097" Properties=species:S:1:pos:R:3:initial_magmoms:R:1 pbc="T T T"
Si       1.72678887       1.53383382       0.01392092       0.00000000
Si      -1.78702929       1.45518570       0.26701288       0.00000000
Si       0.86077989      -1.45104804       1.62816179       0.00000000
Si      -0.01558953      -0.52409817      -2.34722552       0.00000000
Si      -3.14006040      -0.46918458       0.75486530       0.00000000
Si      -1.32019047       2.57746896      -1.77660566       0.00000000
Si       3.08441376      -0.72741366       1.42903062       0.00000000
Si       1.01731050       3.06900342      -1.64070440       0.00000000
Si       2.25955332      -0.08995338      -2.83959190       0.00000000
Si       0.83963547      -3.67585479       0.78684207       0.00000000
