10
Lattice="16.28999089631971 0.0 0.0 0.0 16.28999089631971 0.0 0.0 0.0 34.45770212530097" Properties=species:S:1:pos:R:3:initial_magmoms:R:1 pbc="T T T"
Si       1.41371136      -1.25504676      -1.35587343       0.00000000
Si       1.36231641       1.35161388       1.35779617       0.00000000
Si      -1.34974053      -1.36366848       1.36210339       0.00000000
Si      -1.27663101       1.24924752      -1.59412790       0.00000000
Si      -0.42021684      -2.22418773      -2.64985701       0.00000000
Si       0.66207447       2.09271114      -2.70858230       0.00000000
Si       2.51838513       0.44927820      -2.59621323       0.00000000
Si      -2.11828644      -0.48371526      -2.95801417       0.00000000
Si      -2.69573436       2.70457983      -0.03453008       0.00000000
Si      -2.71207323      -2.70668124      -0.00523413       0.00000000
