10
Lattice="16.28999089631971 0.0 0.0 0.0 16.28999089631971 0.0 0.0 0.0 34.45770212530097" Properties=species:S:1:pos:R:3:initial_magmoms:R:1 pbc="T T T"
Si       1.78702929      -1.45518570      -0.26701288       0.00000000
Si      -0.67132719       1.56038652       1.65362605       0.00000000
Si       0.46683882       1.12228326      -2.04361854       0.00000000
Si      -1.35303111      -1.92437028       0.48785242       0.00000000
Si       3.51381816       0.07864812      -0.25309196       0.00000000
Si       1.77143976      -1.97928387      -2.61423841       0.00000000
Si       2.80433979       1.61381772      -1.90771729       0.00000000
Si      -1.18524411       0.32376375       3.55028241       0.00000000
Si      -1.63108512      -1.89675873       2.83001266       0.00000000
Si       0.31680792      -0.44409798      -3.75206682       0.00000000
