10
Lattice="16.28999089631971 0.0 0.0 0.0 16.28999089631971 0.0 0.0 0.0 34.45770212530097" Properties=species:S:1:pos:R:3:initial_magmoms:R:1 pbc="T T T"
Si      -1.35513252      -1.35896129      -1.35739302       0.00000000
Si      -1.35713619       1.35740823       1.35746193       0.00000000
Si       1.35830907      -1.35767325       1.35749639       0.00000000
Si       1.35892809       1.35897207      -1.35839229       0.00000000
Si       0.00004887      -2.71386091      -2.71230508       0.00000000
Si       2.71318095      -0.00072002       2.71547519       0.00000000
Si      -0.00130320       2.71387653       2.71499278       0.00000000
Si      -2.71456560      -2.71480573       0.00006892       0.00000000
Si      -2.71471221       2.71485393      -0.00010337       0.00000000
Si      -0.00008145      -2.71529443       2.71516507       0.00000000
