10
Lattice="16.28999089631971 0.0 0.0 0.0 16.28999089631971 0.0 0.0 0.0 34.45770212530097" Properties=species:S:1:pos:R:3:initial_magmoms:R:1 pbc="T T T"
Si       0.85033215      -2.12784771      -0.63502135       0.00000000
Si       1.96619878       1.10122843       0.81602776       0.00000000
Si      -1.06994349       1.40555821      -1.63946393       0.00000000
Si      -1.45430604      -1.17828732       1.54184520       0.00000000
Si       1.44460439       3.26884099      -0.03342399       0.00000000
Si       0.40149963      -2.16187752       2.83997094       0.00000000
Si      -2.44501497      -0.07976073      -2.74683172       0.00000000
Si       1.44854005       1.50825037       3.03517393       0.00000000
Si       2.01307489      -2.89896744       1.30339777       0.00000000
Si      -0.96694182      -3.51350769      -1.18606923       0.00000000
