10
Lattice="16.28999089631971 0.0 0.0 0.0 16.28999089631971 0.0 0.0 0.0 34.45770212530097" Properties=species:S:1:pos:R:3:initial_magmoms:R:1 pbc="T T T"
Si       0.77471982       1.91759853       1.11715378       0.00000000
Si      -1.56046797      -0.99716207       1.48826344       0.00000000
Si       1.80695196      -1.08346649      -1.10605840       0.00000000
Si      -1.44272385       0.64700296      -1.81871299       0.00000000
Si      -0.91383642       3.44038773       0.50721766       0.00000000
Si      -0.92885580       2.98258986      -1.89238360       0.00000000
Si       0.56076696      -2.69453120      -2.40352944       0.00000000
Si      -0.20155617      -1.21587161       3.45545476       0.00000000
Si      -3.50085132       0.44682493       1.18603477       0.00000000
Si      -2.07361926      -3.20036828       0.59946098       0.00000000
