10
Lattice="16.28999089631971 0.0 0.0 0.0 16.28999089631971 0.0 0.0 0.0 34.45770212530097" Properties=species:S:1:pos:R:3:initial_magmoms:R:1 pbc="T T T"
Si      -0.77471982      -1.91759853      -1.11715378       0.00000000
Si       1.94771385       0.94853412      -0.91254384       0.00000000
Si      -1.68855624       1.52278920      -0.60993613       0.00000000
Si       0.80399295      -0.38708298       2.18413713       0.00000000
Si       2.02885434       2.73432537       0.57809719       0.00000000
Si       1.92683007       1.59936849       2.61137841       0.00000000
Si      -1.70357562       1.06499133      -3.00953739       0.00000000
Si      -2.33518779      -2.91476060       0.37110966       0.00000000
Si      -3.76101891       0.84085722       0.28920366       0.00000000
Si       1.03223214      -3.00106502      -2.22321218       0.00000000
