10
Lattice="16.28999089631971 0.0 0.0 0.0 16.28999089631971 0.0 0.0 0.0 34.45770212530097" Properties=species:S:1:pos:R:3:initial_magmoms:R:1 pbc="T T T"
Si       1.82292058       1.53894888       0.05775114       0.00000000
Si      -1.45280736       0.59614884      -1.88352797       0.00000000
Si      -0.62794692      -0.04131144       2.38509456       0.00000000
Si       0.70736067      -2.30413905      -0.53161373       0.00000000
Si      -1.98557181       2.21993604       0.96998486       0.00000000
Si       0.84468537      -1.77821640       2.93093932       0.00000000
Si       2.26679490       1.72033803       2.35649465       0.00000000
Si      -0.89751384      -3.09610998      -2.00805817       0.00000000
Si      -1.14135885      -1.18410381      -3.43129990       0.00000000
Si      -3.71236068       0.68610222       0.95606394       0.00000000
