10
Lattice="16.28999089631971 0.0 0.0 0.0 16.28999089631971 0.0 0.0 0.0 34.45770212530097" Properties=species:S:1:pos:R:3:initial_magmoms:R:1 pbc="T T T"
Si       1.35586557      -1.35470898       1.35887470       0.00000000
Si      -1.35783666      -1.35648459      -1.35660049       0.00000000
Si       1.35646830       1.35892809      -1.35632483       0.00000000
Si      -1.35604476       1.35839052       1.35935711       0.00000000
Si       2.71342530      -2.71309950       0.00055132       0.00000000
Si      -0.00086337      -2.71358820      -2.71402797       0.00000000
Si       2.71432125       0.00122175      -2.71399351       0.00000000
Si      -2.71461447      -2.71427238       0.00072361       0.00000000
Si       2.71340901       2.71559187       0.00103373       0.00000000
Si      -2.71546155       0.00094482      -2.71395905       0.00000000
