10
Lattice="16.28999089631971 0.0 0.0 0.0 16.28999089631971 0.0 0.0 0.0 34.45770212530097" Properties=species:S:1:pos:R:3:initial_magmoms:R:1 pbc="T T T"
Si       2.01790746      -1.31468445       0.00024120       0.00000000
Si      -0.82824876      -0.42117795      -2.25019258       0.00000000
Si      -1.15719273      -0.80910801       2.03310893       0.00000000
Si       1.16970345       2.61783558       2.22738157       0.00000000
Si       0.49935366      -0.36509148       3.59073577       0.00000000
Si      -0.20698074       1.79452269      -3.19760763       0.00000000
Si       1.77684804       2.69848737      -1.87257041       0.00000000
Si       1.77409503      -2.73349458      -1.90213514       0.00000000
Si      -1.51918911       3.42889839       0.95434105       0.00000000
Si      -0.83515572       3.53168829      -1.54101822       0.00000000
