10
Lattice="16.28999089631971 0.0 0.0 0.0 16.28999089631971 0.0 0.0 0.0 34.45770212530097" Properties=species:S:1:pos:R:3:initial_magmoms:R:1 pbc="T T T"
Si       1.26719910      -1.35830907      -1.47940781       0.00000000
Si       1.46847834       1.16449065       1.51069542       0.00000000
Si      -1.86176944      -0.86656284       1.27882941       0.00000000
Si      -1.43320723       1.36388025      -1.48498996       0.00000000
Si       2.61314406       2.70716994       0.01774573       0.00000000
Si       2.60493390       0.01519857      -2.84510514       0.00000000
Si       2.61651609      -2.83196763      -0.14337858       0.00000000
Si      -2.85109928       2.63353914      -0.13917474       0.00000000
Si      -3.61342241       0.81917523       1.27169667       0.00000000
Si      -2.77037416      -2.77412184       0.02053680       0.00000000
