10
Lattice="16.28999089631971 0.0 0.0 0.0 16.28999089631971 0.0 0.0 0.0 34.45770212530097" Properties=species:S:1:pos:R:3:initial_magmoms:R:1 pbc="T T T"
Si       1.35741730       1.35672894       1.35777205       0.00000000
Si       1.35757532      -1.35737402      -1.35708290       0.00000000
Si      -1.35736237       1.35817875      -1.35694507       0.00000000
Si      -1.35970813      -1.35796535       1.35825446       0.00000000
Si      -0.00031947      -2.71121705       2.71640555       0.00000000
Si       2.71345066       0.00060273      -2.71475158       0.00000000
Si       0.00284651       2.71500543      -2.71413134       0.00000000
Si       2.71488418      -2.71447401       0.00003446       0.00000000
Si      -2.71458001      -2.71491858       0.00027566       0.00000000
Si      -2.71396099       0.00172674      -2.71561302       0.00000000
