10
Lattice="16.28999089631971 0.0 0.0 0.0 16.28999089631971 0.0 0.0 0.0 34.45770212530097" Properties=species:S:1:pos:R:3:initial_magmoms:R:1 pbc="T T T"
Si       1.29389841      -1.33551936       1.48134089       0.00000000
Si       0.88927110       1.92014532      -1.09923439       0.00000000
Si      -0.86314194      -1.83940164      -1.31950128       0.00000000
Si      -1.43203761       1.34058443       1.47436320       0.00000000
Si       2.67992070      -2.52416808       0.00302883       0.00000000
Si      -2.61104265      -2.64769515       0.12777268       0.00000000
Si      -1.01996577       3.33424439      -1.32263693       0.00000000
Si      -2.83294503       2.63254775       0.09068928       0.00000000
Si       2.64053637       0.00777033       2.84831315       0.00000000
Si       0.94068234      -3.53115072      -1.34913492       0.00000000
