10
Lattice="16.28999089631971 0.0 0.0 0.0 16.28999089631971 0.0 0.0 0.0 34.45770212530097" Properties=species:S:1:pos:R:3:initial_magmoms:R:1 pbc="T T T"
Si       1.34237745       1.34614044       1.35639374       0.00000000
Si      -1.35966114       1.35452979      -1.35539447       0.00000000
Si       1.35501849      -1.36088289      -1.35546339       0.00000000
Si      -1.36671471      -1.37059173       1.36793708       0.00000000
Si       2.64705984      -0.07638381       2.68256807       0.00000000
Si      -0.00127062       2.71215097      -2.71306315       0.00000000
Si       2.71273354      -0.00234576      -2.71313207       0.00000000
Si       2.71298992       2.71585251       0.00306674       0.00000000
Si      -2.71652040      -0.00283446      -2.71289086       0.00000000
Si      -0.00192222      -2.71754667      -2.71282195       0.00000000
