10
Lattice="16.28999089631971 0.0 0.0 0.0 16.28999089631971 0.0 0.0 0.0 34.45770212530097" Properties=species:S:1:pos:R:3:initial_magmoms:R:1 pbc="T T T"
Si       1.20995604       1.07758350       1.63901598       0.00000000
Si       1.42196226      -0.78084486      -1.78745984       0.00000000
Si       0.00860112      -2.34931122       0.57127456       0.00000000
Si      -1.38588804       2.09181519      -0.18534808       0.00000000
Si      -2.68029144      -1.53824841      -0.70176595       0.00000000
Si      -2.91994992       0.74590281      -1.34416125       0.00000000
Si      -0.52631361       0.78639975       3.25787418       0.00000000
Si      -2.13258906      -2.18268081       1.59911393       0.00000000
Si       3.24784223      -0.08138484       1.98983004       0.00000000
Si       0.03930777       3.58904442      -1.32738034       0.00000000
