10
Lattice="16.28999089631971 0.0 0.0 0.0 16.28999089631971 0.0 0.0 0.0 34.45770212530097" Properties=species:S:1:pos:R:3:initial_magmoms:R:1 pbc="T T T"
Si      -1.80695196       1.08346649       1.10605840       0.00000000
Si      -1.24618500      -1.61106471      -1.29747104       0.00000000
Si       1.45430604       1.17828732      -1.54184520       0.00000000
Si       1.85580567      -0.98359020       1.29812574       0.00000000
Si       2.30463819      -0.94956039      -2.17686655       0.00000000
Si       0.48736422      -2.33522037      -2.72791443       0.00000000
Si      -1.96900488      -3.03556005       0.40325871       0.00000000
Si      -3.24967581       1.73046945      -0.71265459       0.00000000
Si      -1.03223214       3.00106502       2.22321218       0.00000000
Si       3.46738093      -1.72068012      -0.23844743       0.00000000
