10
Lattice="16.28999089631971 0.0 0.0 0.0 16.28999089631971 0.0 0.0 0.0 34.45770212530097" Properties=species:S:1:pos:R:3:initial_magmoms:R:1 pbc="T T T"
Si      -1.35633635      -1.35790182       1.35697953       0.00000000
Si       1.35742941       1.35739683       1.35697953       0.00000000
Si       1.35773892      -1.35759231      -1.35704844       0.00000000
Si      -1.35750271       1.35770634      -1.35728965       0.00000000
Si       0.00087966      -2.71541268       2.71109906       0.00000000
Si      -2.71318814      -0.00001629       2.71506170       0.00000000
Si      -2.71384700       0.00149868      -2.71547519       0.00000000
Si       0.00118917      -2.71490769      -2.71447592       0.00000000
Si       2.71461447      -2.71477737      -0.00044795       0.00000000
Si      -2.71514962      -2.71466334       0.00034458       0.00000000
