10
Lattice="16.28999089631971 0.0 0.0 0.0 16.28999089631971 0.0 0.0 0.0 34.45770212530097" Properties=species:S:1:pos:R:3:initial_magmoms:R:1 pbc="T T T"
Si      -0.20924505       0.14247234      -2.33044461       0.00000000
Si      -0.25832682       2.29387635       0.65411092       0.00000000
Si       2.13009669      -0.54281538       1.04706678       0.00000000
Si      -1.96817947      -1.51790220       0.34302662       0.00000000
Si      -1.42238416      -1.17947745       2.67857097       0.00000000
Si      -3.49756793       0.02594997      -0.76444455       0.00000000
Si      -0.40757580      -2.16044496      -2.89582690       0.00000000
Si       0.15744285       0.49477617       3.63653008       0.00000000
Si       1.07077428       3.49174521      -0.88945716       0.00000000
Si      -1.11864407      -3.51503991      -1.08062860       0.00000000
