10
Lattice="16.28999089631971 0.0 0.0 0.0 16.28999089631971 0.0 0.0 0.0 34.45770212530097" Properties=species:S:1:pos:R:3:initial_magmoms:R:1 pbc="T T T"
Si       0.54579531       0.33842475       2.33554436       0.00000000
Si      -1.52938846       1.54385217      -1.10747117       0.00000000
Si       1.96817947       1.51790220      -0.34302662       0.00000000
Si       0.84953539      -1.99713771      -1.42365522       0.00000000
Si      -2.19973825      -1.43907489       0.25588304       0.00000000
Si       1.75893442       1.66037454      -2.67347123       0.00000000
Si       1.67510608      -1.78162101       2.66237584       0.00000000
Si       1.56060367      -0.64254276      -3.23885352       0.00000000
Si      -1.35485740       0.99300582       3.64562692       0.00000000
Si      -3.67057864       1.71048258      -0.07963179       0.00000000
