10
Lattice="16.28999089631971 0.0 0.0 0.0 16.28999089631971 0.0 0.0 0.0 34.45770212530097" Properties=species:S:1:pos:R:3:initial_magmoms:R:1 pbc="T T T"
Si      -0.67675665      -0.33407532       2.29302353       0.00000000
Si       2.32935597       0.27565938      -0.63309171       0.00000000
Si      -0.16744491       2.32585362      -0.68433035       0.00000000
Si      -1.57982701      -1.67425362      -0.95795911       0.00000000
Si       1.97265384      -1.03759155      -2.58946330       0.00000000
Si      -1.89061414       2.74271472       0.77953703       0.00000000
Si      -0.72787141       1.97159499       2.71795615       0.00000000
Si      -0.41576967       1.79910018      -2.98241916       0.00000000
Si      -3.48047972      -1.01967255       0.35212345       0.00000000
Si      -0.15744285      -0.49477617      -3.63653008       0.00000000
