10
Lattice="16.28999089631971 0.0 0.0 0.0 16.28999089631971 0.0 0.0 0.0 34.45770212530097" Properties=species:S:1:pos:R:3:initial_magmoms:R:1 pbc="T T T"
Si       1.35632983      -1.35586557       1.35646266       0.00000000
Si       1.35634612       1.35837527      -1.35890916       0.00000000
Si      -1.35911390      -1.35656604      -1.35873687       0.00000000
Si      -1.35885752       1.36163223       1.35746193       0.00000000
Si       0.00589046      -2.70394452       2.71147810       0.00000000
Si       2.71322168       2.71530421      -0.00272216       0.00000000
Si       2.71411762      -2.71474479      -0.00186072       0.00000000
Si       2.71361264       0.00104256      -2.71575085       0.00000000
Si      -0.00081450      -2.71443528      -2.71612989       0.00000000
Si      -0.00096274       2.71547525      -2.71602651       0.00000000
