10
Lattice="16.28999089631971 0.0 0.0 0.0 16.28999089631971 0.0 0.0 0.0 34.45770212530097" Properties=species:S:1:pos:R:3:initial_magmoms:R:1 pbc="T T T"
Si      -1.35043937      -1.34807895       1.35501544       0.00000000
Si      -1.35632983       1.35586557      -1.35646266       0.00000000
Si       1.35778779      -1.35887922      -1.35832338       0.00000000
Si       1.34708526       1.35192339       1.38147897       0.00000000
Si       2.66566302      -0.14374296       2.67843314       0.00000000
Si      -0.13476717       2.65712706       2.75937433       0.00000000
Si      -2.71282976      -2.71629234      -0.00024120       0.00000000
Si       0.00001629       2.71424084      -2.71537182       0.00000000
Si      -2.71544373      -0.00070047      -2.71519953       0.00000000
Si       2.71534752      -0.00144981      -2.71533736       0.00000000
