10
Lattice="16.28999089631971 0.0 0.0 0.0 16.28999089631971 0.0 0.0 0.0 34.45770212530097" Properties=species:S:1:pos:R:3:initial_magmoms:R:1 pbc="T T T"
Si       1.07559612       1.74285800       1.00396017       0.00000000
Si      -1.21573573       1.41723393      -1.39894903       0.00000000
Si      -1.69269064      -1.06875432       1.30381126       0.00000000
Si       1.48185243      -1.30520367      -1.37789536       0.00000000
Si       0.24687495      -1.33408584       2.99306659       0.00000000
Si       1.66390947       0.73166439       2.94210362       0.00000000
Si      -2.52876088       2.69997695       0.10995459       0.00000000
Si      -3.36636827       0.74035348       1.39929361       0.00000000
Si      -2.58042019       0.06037074      -2.75837505       0.00000000
Si      -2.64635027      -2.73186558      -0.07887372       0.00000000
