10
Lattice="16.28999089631971 0.0 0.0 0.0 16.28999089631971 0.0 0.0 0.0 34.45770212530097" Properties=species:S:1:pos:R:3:initial_magmoms:R:1 pbc="T T T"
Si       0.34526655       0.15449436       2.37255195       0.00000000
Si       1.04532930      -2.19743955       0.03680085       0.00000000
Si       1.41703452       2.06575023      -0.05096297       0.00000000
Si      -1.93956559       0.26533152      -1.68925533       0.00000000
Si      -0.24687495       1.33408584      -2.99306659       0.00000000
Si      -2.80971451      -1.74283452       0.13883016       0.00000000
Si       2.70793557      -0.10999008       2.10567690       0.00000000
Si      -0.93475278      -3.19477851       0.93156450       0.00000000
Si       3.51202626       1.03812912       0.09286356       0.00000000
Si       0.82872117       3.07694384      -1.98910642       0.00000000
