10
Lattice="16.28999089631971 0.0 0.0 0.0 16.28999089631971 0.0 0.0 0.0 34.45770212530097" Properties=species:S:1:pos:R:3:initial_magmoms:R:1 pbc="T T T"
Si      -1.32910110      -1.19786886       1.54356809       0.00000000
Si      -0.40664727       2.22153965       0.73911812       0.00000000
Si       2.36266902      -0.26448444      -0.26687505       0.00000000
Si      -0.34526655      -0.15449436      -2.37255195       0.00000000
Si       1.07176797       1.91125587      -2.42351492       0.00000000
Si       0.70006275      -2.35193391      -2.33575110       0.00000000
Si      -3.36698729      -0.03890052       1.19275403       0.00000000
Si      -2.76971702       2.31264962       0.91078649       0.00000000
Si      -1.07077428      -3.49174521       0.88945716       0.00000000
Si       0.32457825       3.71329640      -0.95148106       0.00000000
