10
Lattice="10.86 0.0 0.0 0.0 10.86 0.0 0.0 0.0 10.86" Properties=species:S:1:pos:R:3:initial_magmoms:R:1 pbc="T T T"
Si       1.35750000       1.35750000       1.35750000       0.00000000
Si       1.35750000      -1.35750000      -1.35750000       0.00000000
Si      -1.35750000       1.35750000      -1.35750000       0.00000000
Si      -1.35750000      -1.35750000       1.35750000       0.00000000
Si      -2.85830856       2.43021822       0.13654278       0.00000000
Si       2.91396606       0.18690060      -2.36925018       0.00000000
Si      -2.48230278      -0.16788474       2.88872742       0.00000000
Si       2.88306936      -2.50006974       0.17775648       0.00000000
Si       2.66068914       2.75872236      -0.17440074       0.00000000
Si       0.00000000       2.71500000       2.71500000       0.00000000
