10
Lattice="10.86 0.0 0.0 0.0 10.86 0.0 0.0 0.0 10.86" Properties=species:S:1:pos:R:3:initial_magmoms:R:1 pbc="T T T"
Si       1.41676302       1.22338986       1.44642168       0.00000000
Si       1.41676302      -1.49161014      -1.26857832       0.00000000
Si      -1.29823698      -1.49161014       1.44642168       0.00000000
Si       0.00777576       2.50702014      -2.57652414       0.00000000
Si      -2.72271060      -0.02596626      -2.56556640       0.00000000
Si       0.23555340       2.39742102       2.89730682       0.00000000
Si       2.77426302       2.58088986       0.08892168       0.00000000
Si      -2.64573492      -0.14647968       2.74717818       0.00000000
Si       2.77426302      -0.13411014      -2.62607832       0.00000000
Si       0.05926302      -2.84911014      -2.62607832       0.00000000
