10
Lattice="10.86 0.0 0.0 0.0 10.86 0.0 0.0 0.0 10.86" Properties=species:S:1:pos:R:3:initial_magmoms:R:1 pbc="T T T"
Si      -1.34216568      -1.34606442       1.36796904       0.00000000
Si      -1.34216568       1.36893558      -1.34703096       0.00000000
Si       1.37283432       1.36893558       1.36796904       0.00000000
Si       1.26774210      -1.51815198      -1.44896292       0.00000000
Si       2.50581468       0.26338758      -2.50947450       0.00000000
Si      -2.69966568      -2.70356442       0.01046904       0.00000000
Si      -2.69966568       0.01143558      -2.70453096       0.00000000
Si      -2.69966568       0.01143558       2.72546904       0.00000000
Si      -2.69966568       2.72643558       0.01046904       0.00000000
Si       0.01533432      -2.70356442       2.72546904       0.00000000
