10
Lattice="10.86 0.0 0.0 0.0 10.86 0.0 0.0 0.0 10.86" Properties=species:S:1:pos:R:3:initial_magmoms:R:1 pbc="T T T"
Si      -1.23807258      -1.78153956       1.06051158       0.00000000
Si      -1.30030038       1.15715472      -1.69604964       0.00000000
Si      -2.50581468      -0.26338758       2.50947450       0.00000000
Si      -2.53128138       2.49188130      -0.19956336       0.00000000
Si       0.14616474       2.51502396       2.57535126       0.00000000
Si       0.14852136       2.55038412      -2.82727068       0.00000000
Si       2.87194872       2.53325790      -0.26212782       0.00000000
Si       0.23452170      -2.97932154       2.46320004       0.00000000
Si      -2.64691866      -0.13719438      -2.96324874       0.00000000
Si       0.15754602      -2.85880812      -2.84954454       0.00000000
