10
Lattice="10.86 0.0 0.0 0.0 10.86 0.0 0.0 0.0 10.86" Properties=species:S:1:pos:R:3:initial_magmoms:R:1 pbc="T T T"
Si       1.23156744      -1.36787130      -1.25905410       0.00000000
Si       1.23156744       1.34712870       1.45594590       0.00000000
Si      -1.48343256      -1.36787130       1.45594590       0.00000000
Si      -2.39591148       0.45039678      -2.18573790       0.00000000
Si      -1.08431670       2.25801120      -2.35379640       0.00000000
Si       2.41139784      -0.09598068      -2.63343054       0.00000000
Si       2.76565104       2.42950146       0.37467000       0.00000000
Si       2.58906744      -2.72537130       0.09844590       0.00000000
Si      -0.12593256      -2.72537130      -2.61655410       0.00000000
Si       2.58906744      -0.01037130       2.81344590       0.00000000
