10
Lattice="10.86 0.0 0.0 0.0 10.86 0.0 0.0 0.0 10.86" Properties=species:S:1:pos:R:3:initial_magmoms:R:1 pbc="T T T"
Si       1.23920202      -1.16289966      -1.32249822       0.00000000
Si       1.14528474       1.52862102       1.34670516       0.00000000
Si      -1.47579798      -1.16289966       1.39250178       0.00000000
Si      -1.47579798       1.55210034      -1.32249822       0.00000000
Si       1.63831788      -0.25201716       3.01275948       0.00000000
Si       2.65036128      -2.49082788      -0.12621492       0.00000000
Si      -0.11829798      -2.52039966      -2.67999822       0.00000000
Si       2.59670202       0.19460034      -2.67999822       0.00000000
Si      -2.83329798      -2.52039966       0.03500178       0.00000000
Si       0.32672310      -2.05963158       3.18081798       0.00000000
