10
Lattice="10.86 0.0 0.0 0.0 10.86 0.0 0.0 0.0 10.86" Properties=species:S:1:pos:R:3:initial_magmoms:R:1 pbc="T T T"
Si       1.24790088       1.26341982       1.38423732       0.00000000
Si      -1.46709912       1.26341982      -1.33076268       0.00000000
Si      -1.46709912      -1.45158018       1.38423732       0.00000000
Si       1.64701674      -0.54069768      -2.42550498       0.00000000
Si       0.33542196      -2.34831210      -2.25744648       0.00000000
Si       2.50922472       2.54183730      -0.07901736       0.00000000
Si       2.60540088      -0.09408018       2.74173732       0.00000000
Si      -0.10959912       2.62091982       2.74173732       0.00000000
Si      -0.22821204       2.54094678      -2.83120200       0.00000000
Si      -2.82459912       2.62091982       0.02673732       0.00000000
