10
Lattice="16.28999089631971 0.0 0.0 0.0 16.28999089631971 0.0 0.0 0.0 34.395419527814205" Properties=species:S:1:pos:R:3:initial_magmoms:R:1 pbc="T T T"
Si       1.86935895      -1.10240946       0.89854644       0.00000000
Si      -1.91361888      -1.40980176       0.26914431       0.00000000
Si       0.20701332      -0.38188647      -2.35429899       0.00000000
Si      -0.41972814       1.84746519       1.58153667       0.00000000
Si      -2.68307703       1.85191236       0.66114912       0.00000000
Si      -1.32077691      -1.94041593       2.51117659       0.00000000
Si       2.45783520      -0.94535757      -2.40953807       0.00000000
Si      -2.08264392       2.57175117      -1.59457254       0.00000000
Si       1.02107349      -2.22798656       2.76030275       0.00000000
Si       2.57970069      -2.59771580      -0.72770430       0.00000000
