10
Lattice="16.28999089631971 0.0 0.0 0.0 16.28999089631971 0.0 0.0 0.0 34.395419527814205" Properties=species:S:1:pos:R:3:initial_magmoms:R:1 pbc="T T T"
Si       2.15330994       1.11848769      -0.49329938       0.00000000
Si       1.39595526      -1.78184907       1.01765785       0.00000000
Si      -1.68161670       0.10391391       1.84507452       0.00000000
Si      -1.17015957       2.16922527      -0.59019133       0.00000000
Si      -0.08931807      -0.59069169      -2.97386403       0.00000000
Si      -3.06077697      -0.45346473      -0.32410822       0.00000000
Si       2.33725662      -2.22262389      -1.17632401       0.00000000
Si      -2.37428379      -1.26930051      -2.30353132       0.00000000
Si       2.67007761      -0.22243995      -2.40083602       0.00000000
Si      -2.86389603       1.96605639       1.00668570       0.00000000
