10
Lattice="16.28999089631971 0.0 0.0 0.0 16.28999089631971 0.0 0.0 0.0 34.395419527814205" Properties=species:S:1:pos:R:3:initial_magmoms:R:1 pbc="T T T"
Si      -0.33837588      -1.19985624       2.00339673       0.00000000
Si      -0.01026270      -1.22512203      -2.03263285       0.00000000
Si       1.74498480       1.57084470      -0.39255514       0.00000000
Si      -2.15854880       1.01149497       0.15058323       0.00000000
Si       0.36582453       1.01346606      -2.56173788       0.00000000
Si      -2.07208148      -2.47732130       1.01177623       0.00000000
Si      -1.94470020       2.13516288       2.28072715       0.00000000
Si       0.56270547       3.43298718      -1.23094396       0.00000000
Si      -3.62129048      -0.85014252       0.31836418       0.00000000
Si       1.63688436      -2.98501218      -1.66332902       0.00000000
