10
Lattice="16.28999089631971 0.0 0.0 0.0 16.28999089631971 0.0 0.0 0.0 34.395419527814205" Properties=species:S:1:pos:R:3:initial_magmoms:R:1 pbc="T T T"
Si       1.25437887       1.27827860      -1.50266793       0.00000000
Si      -1.48318821       1.23328497       1.43549364       0.00000000
Si      -1.36280511      -1.53060840      -1.40976585       0.00000000
Si       1.79273079       0.09089820       1.72641026       0.00000000
Si       1.80719631       2.46461740       1.97099622       0.00000000
Si      -0.09762597       2.46624151      -2.93995013       0.00000000
Si       2.03066253       3.25764881      -0.23815402       0.00000000
Si       0.81471177      -1.11226491       3.60574264       0.00000000
Si      -2.88158697       2.59304287      -0.03862608       0.00000000
Si       2.63088387      -0.24307938      -2.87545868       0.00000000
