10
Lattice="16.28999089631971 0.0 0.0 0.0 16.28999089631971 0.0 0.0 0.0 34.395419527814205" Properties=species:S:1:pos:R:3:initial_magmoms:R:1 pbc="T T T"
Si      -1.35488757       1.35356509      -1.35958290       0.00000000
Si      -1.35728220      -1.35777250       1.35576501       0.00000000
Si       1.35803341       1.35746003       1.35576501       0.00000000
Si       1.35645654      -1.35363484      -1.36195619       0.00000000
Si      -2.69620617      -0.00898839      -2.71788630       0.00000000
Si      -2.71433694      -0.00057093       2.71283705       0.00000000
Si      -0.00008513      -2.71450144       2.71335298       0.00000000
Si       0.00062511       2.71484871       2.71311221       0.00000000
Si       2.71507837       0.00018032       2.71290584       0.00000000
Si       2.71419871       2.71437630      -0.00154779       0.00000000
