10
Lattice="16.28999089631971 0.0 0.0 0.0 16.28999089631971 0.0 0.0 0.0 34.395419527814205" Properties=species:S:1:pos:R:3:initial_magmoms:R:1 pbc="T T T"
Si      -0.29789523       1.81943010      -1.42173546       0.00000000
Si       1.57317417      -1.46639322      -1.02316112       0.00000000
Si      -1.98900900      -1.33222878       0.14401370       0.00000000
Si       1.06170075       0.47153034       2.10200845       0.00000000
Si      -1.60798590      -1.91550852       2.40007932       0.00000000
Si       0.46113732      -1.49594328       3.33941875       0.00000000
Si      -0.63718335       0.75215817      -3.55645397       0.00000000
Si       3.38387283       0.33143634       1.46999226       0.00000000
Si       1.58283414      -3.40777026       0.29215486       0.00000000
Si       3.69251946      -0.65199096      -0.62558424       0.00000000
