10
Lattice="16.28999089631971 0.0 0.0 0.0 16.28999089631971 0.0 0.0 0.0 34.395419527814205" Properties=species:S:1:pos:R:3:initial_magmoms:R:1 pbc="T T T"
Si       2.24323074      -0.87575040      -0.15639606       0.00000000
Si      -0.68652576       1.10776887      -2.07139651       0.00000000
Si      -0.48428541       1.51253369       1.93556892       0.00000000
Si      -1.45135755      -2.03789529      -0.45701219       0.00000000
Si      -0.58500648      -2.37957804      -2.60404427       0.00000000
Si      -1.48183614      -0.16299774       3.44376217       0.00000000
Si      -0.15726366      -0.40943286      -3.81135857       0.00000000
Si       0.57875112       3.06563858      -2.26125933       0.00000000
Si       3.15713232       0.46722978      -2.33723885       0.00000000
Si      -3.01734783       1.57093497      -2.02289894       0.00000000
