10
Lattice="16.28999089631971 0.0 0.0 0.0 16.28999089631971 0.0 0.0 0.0 34.395419527814205" Properties=species:S:1:pos:R:3:initial_magmoms:R:1 pbc="T T T"
Si       1.40265045      -1.26212400       1.36843285       0.00000000
Si       1.07777898       1.70899530      -1.20904404       0.00000000
Si      -1.33859817       1.46616027       1.34342049       0.00000000
Si      -0.72539370      -1.66677229      -1.64493920       0.00000000
Si      -0.53613648       0.14286004      -3.40746466       0.00000000
Si      -2.58429447      -2.58520249      -0.18758928       0.00000000
Si       0.02591739      -2.61201583       2.72749294       0.00000000
Si       2.66405031      -2.73283876      -0.02151435       0.00000000
Si      -2.69050527       0.10860380       2.72312472       0.00000000
Si       2.74396905       0.10042948       2.72673624       0.00000000
