10
Lattice="16.28999089631971 0.0 0.0 0.0 16.28999089631971 0.0 0.0 0.0 34.395419527814205" Properties=species:S:1:pos:R:3:initial_magmoms:R:1 pbc="T T T"
Si      -1.71199755      -1.37415177      -0.69795224       0.00000000
Si      -0.71034174       1.49530634       1.62625074       0.00000000
Si       2.33438958      -0.26354125      -0.01231357       0.00000000
Si      -0.12186549       1.65235823      -1.68183377       0.00000000
Si       1.29753108       2.73135896       1.53806083       0.00000000
Si       2.89937565       1.05730082       1.83547819       0.00000000
Si       2.80981323      -0.11463273      -2.28819096       0.00000000
Si       1.41841917       3.24335366      -0.79092311       0.00000000
Si      -2.37268737       2.21582933      -1.62659469       0.00000000
Si      -0.84655872      -2.68111476      -2.37579614       0.00000000
