10
Lattice="16.28999089631971 0.0 0.0 0.0 16.28999089631971 0.0 0.0 0.0 34.395419527814205" Properties=species:S:1:pos:R:3:initial_magmoms:R:1 pbc="T T T"
Si      -1.21639059       0.31791564       1.94853600       0.00000000
Si      -0.98315037      -0.71739857      -2.06045876       0.00000000
Si      -0.34986033       2.36498220      -0.14053976       0.00000000
Si       2.24256285      -0.92518892       0.09496581       0.00000000
Si       0.05809014       1.76678082       3.31472768       0.00000000
Si       2.05330563      -2.73482126       1.85749127       0.00000000
Si      -0.74661957      -3.02823674      -2.38556445       0.00000000
Si      -0.13486491       0.40817853      -3.92221507       0.00000000
Si       2.96249940      -1.66233586      -2.04136929       0.00000000
Si       3.86035533       0.98512146      -0.00333636       0.00000000
