10
Lattice="16.28999089631971 0.0 0.0 0.0 16.28999089631971 0.0 0.0 0.0 34.395419527814205" Properties=species:S:1:pos:R:3:initial_magmoms:R:1 pbc="T T T"
Si       0.71993655      -0.73714693      -2.13633510       0.00000000
Si      -2.24256285       0.92518892      -0.09496581       0.00000000
Si       1.61779248       1.91031038      -0.09830216       0.00000000
Si      -0.18925722      -1.80963234       1.76252547       0.00000000
Si       1.61391546       1.56613526       2.19842062       0.00000000
Si       0.53613648      -0.14286004       3.40746466       0.00000000
Si       2.68902288      -1.91577798      -1.53100977       0.00000000
Si      -0.69888987      -2.51179650      -2.75521223       0.00000000
Si      -3.22571322       0.20779035      -2.15542456       0.00000000
Si      -0.31617261      -3.80383785      -0.81279861       0.00000000
