10
Lattice="16.28999089631971 0.0 0.0 0.0 16.28999089631971 0.0 0.0 0.0 34.395419527814205" Properties=species:S:1:pos:R:3:initial_magmoms:R:1 pbc="T T T"
Si       2.00971359      -1.20264183      -0.29187969       0.00000000
Si       1.24025544       2.05907229       0.10012512       0.00000000
Si      -1.12448241      -0.85268376       1.96907008       0.00000000
Si      -1.42232877      -0.24242778      -1.94633469       0.00000000
Si       2.60255556      -1.73325600       1.95015259       0.00000000
Si       1.43265663      -2.63937910      -2.18665562       0.00000000
Si      -0.21706425       3.50406045       1.30159219       0.00000000
Si      -0.24589755      -1.60715511      -3.47431766       0.00000000
Si       3.92333247       0.20715993      -0.56102400       0.00000000
Si       1.84068855       2.77891110      -2.15559654       0.00000000
