10
Lattice="16.28999089631971 0.0 0.0 0.0 16.28999089631971 0.0 0.0 0.0 34.395419527814205" Properties=species:S:1:pos:R:3:initial_magmoms:R:1 pbc="T T T"
Si      -1.30489416       1.31041647       1.54743359       0.00000000
Si       1.39600413      -1.40576184       1.54741983       0.00000000
Si       1.64403567       1.23070950      -1.52625430       0.00000000
Si      -2.03605452      -0.80850528      -1.34499033       0.00000000
Si      -2.74923072       2.60762175       0.10739288       0.00000000
Si      -2.69977428      -2.75691960       0.02037586       0.00000000
Si       2.80591992       2.65321746       0.01055252       0.00000000
Si       2.77123851      -2.79862200       0.18569409       0.00000000
Si       0.04649166       2.65673610       2.93388621       0.00000000
Si      -2.66752008      -0.05748741       2.93024029       0.00000000
