10
Lattice="16.28999089631971 0.0 0.0 0.0 16.28999089631971 0.0 0.0 0.0 34.395419527814205" Properties=species:S:1:pos:R:3:initial_magmoms:R:1 pbc="T T T"
Si      -1.22399802       1.37588598       1.40722059       0.00000000
Si       1.35291708      -1.16802558       1.49995069       0.00000000
Si       1.34765541       1.35852084      -1.33605642       0.00000000
Si      -1.36332639      -1.35791811      -1.33529972       0.00000000
Si      -0.59838057      -1.92951792       2.70214006       0.00000000
Si       0.49213719       2.35061442       2.79700268       0.00000000
Si      -2.53571769      -0.09800064       2.68710926       0.00000000
Si       2.28651327       0.60981615       2.94321769       0.00000000
Si       2.70940167       0.00109143      -2.69309406       0.00000000
Si      -0.00656487      -2.71454768      -2.69323164       0.00000000
