10
Lattice="16.28999089631971 0.0 0.0 0.0 16.28999089631971 0.0 0.0 0.0 34.395419527814205" Properties=species:S:1:pos:R:3:initial_magmoms:R:1 pbc="T T T"
Si       1.54204398       1.80819000       0.21025932       0.00000000
Si      -1.79475075       0.84232332       1.35046811       0.00000000
Si       1.56261825      -1.77256377       0.46825950       0.00000000
Si      -1.07448840       0.05123205      -2.16037751       0.00000000
Si      -1.83184308      -2.84910471      -0.64942028       0.00000000
Si       3.21672114       1.26185598      -1.44694732       0.00000000
Si      -3.22779834      -1.06725564      -1.66707813       0.00000000
Si      -2.65787640       2.71463076       0.21741357       0.00000000
Si       0.70205013       3.84595497      -0.58114533       0.00000000
Si      -1.05805179       2.07117576       3.22997247       0.00000000
