10
Lattice="16.28999089631971 0.0 0.0 0.0 16.28999089631971 0.0 0.0 0.0 34.395419527814205" Properties=species:S:1:pos:R:3:initial_magmoms:R:1 pbc="T T T"
Si      -0.83999385       2.03776497      -0.79140465       0.00000000
Si      -1.54204398      -1.80819000      -0.21025932       0.00000000
Si       1.67467716      -0.54633402      -1.65720663       0.00000000
Si       0.93009384       0.16821054       2.24891137       0.00000000
Si       2.59463862      -1.42664562       1.82196079       0.00000000
Si       0.02057427      -3.58075377       0.25800019       0.00000000
Si       3.55892517      -0.76276296      -0.28813059       0.00000000
Si      -3.33679473      -0.96586668       1.14020879       0.00000000
Si      -0.85076154       1.69078797      -3.14068191       0.00000000
Si       1.57151259       1.29068928      -3.23344641       0.00000000
