10
Lattice="16.28999089631971 0.0 0.0 0.0 16.28999089631971 0.0 0.0 0.0 34.395419527814205" Properties=species:S:1:pos:R:3:initial_magmoms:R:1 pbc="T T T"
Si      -0.83699649      -1.82759139       1.24557051       0.00000000
Si       0.82798812      -1.01796210      -2.01608157       0.00000000
Si       1.85662017       0.82723878       1.32418473       0.00000000
Si      -1.75596426       1.94144220      -0.13936324       0.00000000
Si      -0.04818582       0.60507576      -3.40128907       0.00000000
Si      -2.12602419      -0.43018632       2.68969396       0.00000000
Si       0.60064488       2.29695516       2.69870557       0.00000000
Si      -2.30049009       0.53224317      -2.76026128       0.00000000
Si      -3.48257394       0.80107704       1.09545162       0.00000000
Si       2.90196576       2.45887776      -0.01492055       0.00000000
