10
Lattice="16.28999089631971 0.0 0.0 0.0 16.28999089631971 0.0 0.0 0.0 34.395419527814205" Properties=species:S:1:pos:R:3:initial_magmoms:R:1 pbc="T T T"
Si      -0.22688712       0.56314530       2.26291031       0.00000000
Si      -1.99169685       1.05930612      -0.89682667       0.00000000
Si      -0.47693862      -2.37302946       0.26377862       0.00000000
Si       2.18870811       0.73863747      -0.78676127       0.00000000
Si       1.31686731       2.84273532      -1.20480343       0.00000000
Si      -3.44981475       0.29222631       0.80395899       0.00000000
Si      -2.32549524       0.08532702      -3.00715881       0.00000000
Si      -2.47919139       0.49031271       2.90393810       0.00000000
Si       0.64928682      -1.05989256       3.64811782       0.00000000
Si      -0.59416146      -2.79365355       2.63252370       0.00000000
