10
Lattice="16.28999089631971 0.0 0.0 0.0 16.28999089631971 0.0 0.0 0.0 34.395419527814205" Properties=species:S:1:pos:R:3:initial_magmoms:R:1 pbc="T T T"
Si      -1.79626409      -0.79358364       1.31566158       0.00000000
Si      -1.56988359       0.32259087      -1.80027423       0.00000000
Si       0.97977834       1.96584462       1.19788128       0.00000000
Si       1.91091474      -1.67384637      -0.11352191       0.00000000
Si      -0.33747993      -1.98589761       2.68990038       0.00000000
Si       2.37908934       0.75321702       2.68290435       0.00000000
Si       1.04400981      -3.37791069       1.24240273       0.00000000
Si      -1.06782579      -1.43544222      -3.36788074       0.00000000
Si      -1.55524051       2.68926723      -2.25291820       0.00000000
Si      -2.90362522      -2.48876991      -0.37540878       0.00000000
