10
Lattice="16.28999089631971 0.0 0.0 0.0 16.28999089631971 0.0 0.0 0.0 34.395419527814205" Properties=species:S:1:pos:R:3:initial_magmoms:R:1 pbc="T T T"
Si       2.31190938      -0.36673677      -0.13579319       0.00000000
Si      -1.43487207      -1.72439424      -0.73152219       0.00000000
Si      -0.32488776       0.12491172       2.34263894       0.00000000
Si      -0.44095401       1.88776665      -1.51680445       0.00000000
Si      -2.70917361       0.70086096       2.38219369       0.00000000
Si      -1.30517109      -1.53249804      -3.17435504       0.00000000
Si       1.08362709       1.35738054      -3.40958545       0.00000000
Si      -0.65182806      -3.76996212       0.54606199       0.00000000
Si       0.85902057       1.92155211       3.26636284       0.00000000
Si       3.60012258       1.59997122       0.31537178       0.00000000
