10
Lattice="16.28999089631971 0.0 0.0 0.0 16.28999089631971 0.0 0.0 0.0 34.395419527814205" Properties=species:S:1:pos:R:3:initial_magmoms:R:1 pbc="T T T"
Si      -0.33379839      -0.97397910      -2.11033214       0.00000000
Si      -1.45811790      -0.76707981       1.70078566       0.00000000
Si       1.99169685      -1.05930612       0.89682667       0.00000000
Si      -0.76018914       2.33396604       0.03040557       0.00000000
Si       1.76480973      -0.49616082       3.15973698       0.00000000
Si      -0.94288149       0.79990416      -3.47328580       0.00000000
Si       3.30856416       1.78342920      -0.30797676       0.00000000
Si       0.22074579       3.20160402       2.01928742       0.00000000
Si      -0.48749454      -0.56899341       3.80076477       0.00000000
Si      -3.09365019       2.32494138       0.54516770       0.00000000
