10
Lattice="16.28999089631971 0.0 0.0 0.0 16.28999089631971 0.0 0.0 0.0 34.395419527814205" Properties=species:S:1:pos:R:3:initial_magmoms:R:1 pbc="T T T"
Si      -1.35692442      -1.35765514      -1.35810390       0.00000000
Si       1.35812988      -1.35781267       1.35745039       0.00000000
Si       1.35791811       1.35801422      -1.35751918       0.00000000
Si      -1.35795069       1.35842147       1.35769115       0.00000000
Si       0.00133578      -2.71465587       2.71476319       0.00000000
Si      -2.71469592      -2.71480248       0.00013758       0.00000000
Si      -2.71524978       0.00071676       2.71479759       0.00000000
Si       2.71518462      -2.71501425       0.00037835       0.00000000
Si      -0.00047241      -2.71612197      -2.71421286       0.00000000
Si      -2.71520091       2.71531331       0.00017198       0.00000000
