10
Lattice="16.28999089631971 0.0 0.0 0.0 16.28999089631971 0.0 0.0 0.0 34.395419527814205" Properties=species:S:1:pos:R:3:initial_magmoms:R:1 pbc="T T T"
Si      -1.10095965      -0.27360521       2.03283922       0.00000000
Si      -0.07770330       2.38449762      -0.19041315       0.00000000
Si       2.10260636      -1.03355978       0.52573428       0.00000000
Si      -1.14890112      -1.38158748      -1.69827479       0.00000000
Si       2.38022054      -1.48654395      -1.81497851       0.00000000
Si      -1.33058349      -2.66094611       1.82536593       0.00000000
Si      -2.95246476       1.16861202       1.50789603       0.00000000
Si      -0.70970643      -3.50980172      -0.33556190       0.00000000
Si       0.36136107       0.52694892       3.71446662       0.00000000
Si      -2.30412276       3.03788952       0.22914241       0.00000000
