10
Lattice="16.28999089631971 0.0 0.0 0.0 16.28999089631971 0.0 0.0 0.0 34.395419527814205" Properties=species:S:1:pos:R:3:initial_magmoms:R:1 pbc="T T T"
Si      -0.00387702      -0.34417512       2.29672279       0.00000000
Si       2.34678627      -0.43810326       0.14033339       0.00000000
Si       0.20636172       2.01901518      -1.34909229       0.00000000
Si      -1.61779248      -1.91031038       0.09830216       0.00000000
Si      -0.89785593      -2.64745732      -2.03803293       0.00000000
Si       3.08906571       0.02397888      -2.18837540       0.00000000
Si       2.52942975      -2.81732781       0.17479762       0.00000000
Si      -0.38550285      -1.01494845      -3.70965126       0.00000000
Si       1.66874760       0.73995696       3.48338228       0.00000000
Si       3.16606854       1.59861915       1.80060122       0.00000000
