10
Lattice="16.28999089631971 0.0 0.0 0.0 16.28999089631971 0.0 0.0 0.0 34.395419527814205" Properties=species:S:1:pos:R:3:initial_magmoms:R:1 pbc="T T T"
Si       1.35790182       1.35720135      -1.35693445       0.00000000
Si      -1.35741312       1.35754344       1.35731280       0.00000000
Si       1.35782037      -1.35751086       1.35738159       0.00000000
Si      -1.35777150      -1.35886293      -1.35775994       0.00000000
Si      -2.71383255       0.00057015       2.71345616       0.00000000
Si       2.71199178       0.00146610      -2.71586384       0.00000000
Si       0.00084708      -2.71415835       2.71479759       0.00000000
Si       0.00140094       2.71557558       2.71383451       0.00000000
Si      -2.71489140       2.71489140       0.00010319       0.00000000
Si       2.71490769       2.71490769       0.00017198       0.00000000
