10
Lattice="16.28999089631971 0.0 0.0 0.0 16.28999089631971 0.0 0.0 0.0 34.395419527814205" Properties=species:S:1:pos:R:3:initial_magmoms:R:1 pbc="T T T"
Si       1.35697329       1.35664749      -1.35741599       0.00000000
Si      -1.35866745      -1.35793440      -1.35724401       0.00000000
Si      -1.36174626       1.35742941       1.35703764       0.00000000
Si       1.35615879      -1.35870003       1.36405431       0.00000000
Si      -2.70940167      -0.00109143       2.69309406       0.00000000
Si      -0.00084708       2.71415835      -2.71479759       0.00000000
Si       2.71453302      -0.00084708      -2.71462561       0.00000000
Si      -2.71467963       2.71472850      -0.00134142       0.00000000
Si       2.71464705       2.71541268       0.00000000       0.00000000
Si      -2.71591767      -0.00104256      -2.71476319       0.00000000
