10
Lattice="16.28999089631971 0.0 0.0 0.0 16.28999089631971 0.0 0.0 0.0 34.395419527814205" Properties=species:S:1:pos:R:3:initial_magmoms:R:1 pbc="T T T"
Si       1.20062187       1.90697256      -0.34842579       0.00000000
Si       1.54841337      -1.74254130       0.24554904       0.00000000
Si      -1.37344248      -0.24713559      -1.91238639       0.00000000
Si      -1.76148657       0.25133841       1.58796862       0.00000000
Si      -0.37009251      -3.10664798       0.09070077       0.00000000
Si      -2.20346685      -2.23695909      -1.15420774       0.00000000
Si      -0.46392291       3.50182872       0.07852479       0.00000000
Si      -3.30177123      -1.33965702       0.69705796       0.00000000
Si      -2.02901724       2.59760340       1.62693865       0.00000000
Si       2.79873603       2.10896856       1.29588255       0.00000000
