10
Lattice="16.28999089631971 0.0 0.0 0.0 16.28999089631971 0.0 0.0 0.0 34.395419527814205" Properties=species:S:1:pos:R:3:initial_magmoms:R:1 pbc="T T T"
Si       0.69722130      -2.23024761       0.05854104       0.00000000
Si      -2.18548269      -0.23521131       0.89782414       0.00000000
Si      -0.03038085       1.24916607      -2.03380229       0.00000000
Si       2.61002357       0.39772035       1.05504569       0.00000000
Si      -0.24391017       1.16282907       2.68972331       0.00000000
Si       1.96391004       2.47552614      -1.71392471       0.00000000
Si      -0.04505814      -2.69232975       2.38724982       0.00000000
Si      -0.43748424      -3.40840557      -1.59993823       0.00000000
Si      -1.74410514       2.93785263      -1.96903568       0.00000000
Si      -2.39184441      -2.25422649       2.24691643       0.00000000
