10
Lattice="16.28999089631971 0.0 0.0 0.0 16.28999089631971 0.0 0.0 0.0 34.395419527814205" Properties=species:S:1:pos:R:3:initial_magmoms:R:1 pbc="T T T"
Si      -1.73053557      -1.63771515       0.27784635       0.00000000
Si       1.76640519      -1.04956470      -1.36694353       0.00000000
Si      -1.25367840       1.86041574      -1.06729046       0.00000000
Si       0.90145180       0.66015225       2.35945831       0.00000000
Si       0.19062558      -3.00423438       1.28377536       0.00000000
Si      -1.27374768       0.21157452       3.22371250       0.00000000
Si      -2.07821304       2.08020042       1.99682720       0.00000000
Si      -2.37500055       0.35989497      -2.69302527       0.00000000
Si       0.32759190      -2.47902849      -2.66107191       0.00000000
Si      -1.01252124      -3.57977637      -1.04142509       0.00000000
