10
Lattice="16.28999089631971 0.0 0.0 0.0 16.28999089631971 0.0 0.0 0.0 34.395419527814205" Properties=species:S:1:pos:R:3:initial_magmoms:R:1 pbc="T T T"
Si      -0.01407456      -0.05387103      -2.36210676       0.00000000
Si       1.46885301       1.49304366       1.13157554       0.00000000
Si       1.38921120      -1.91396097       0.63827616       0.00000000
Si      -2.40515334       0.50898105       0.20403374       0.00000000
Si       1.67882706       3.29069403      -0.32173493       0.00000000
Si       3.58616924      -1.29059154      -0.14545831       0.00000000
Si      -1.36000323      -1.98856917      -2.99990138       0.00000000
Si       0.70012791       1.79219322       3.35675405       0.00000000
Si       2.16112492       0.39470670      -3.22636095       0.00000000
Si       3.71398058       0.67862511       1.12717292       0.00000000
