10
Lattice="16.28999089631971 0.0 0.0 0.0 16.28999089631971 0.0 0.0 0.0 34.395419527814205" Properties=species:S:1:pos:R:3:initial_magmoms:R:1 pbc="T T T"
Si      -0.60694911       2.22006636       0.08107005       0.00000000
Si       2.12182137      -0.58982832      -0.81916177       0.00000000
Si      -0.15268617      -0.69608799       2.27639332       0.00000000
Si      -1.36932111      -1.46657241      -1.35315096       0.00000000
Si       1.89333783      -2.85943257      -0.13579319       0.00000000
Si       0.29522367      -3.06142857      -1.78010154       0.00000000
Si       1.56103812      -2.38477455       2.21162671       0.00000000
Si      -2.36064906      -1.54644228       2.35068747       0.00000000
Si       1.33222878       3.43666872      -0.47885330       0.00000000
Si      -2.44467288       2.47319667      -1.33739784       0.00000000
