10
Lattice="16.28999089631971 0.0 0.0 0.0 16.28999089631971 0.0 0.0 0.0 34.395419527814205" Properties=species:S:1:pos:R:3:initial_magmoms:R:1 pbc="T T T"
Si      -1.35668007      -1.35710361      -1.35665929       0.00000000
Si      -1.35651717       1.35829278       1.35796632       0.00000000
Si       1.35858172       1.35812988      -1.35631534       0.00000000
Si       1.35804499      -1.35542574       1.36302245       0.00000000
Si      -2.70418887      -0.00770517       2.70537323       0.00000000
Si       2.69188733       0.02785590       2.72934686       0.00000000
Si      -2.71252935      -2.71402803      -0.00030956       0.00000000
Si      -2.71371852       0.00045612      -2.71393770       0.00000000
Si      -2.71246419       2.71521720       0.00048154       0.00000000
Si       0.00097740      -2.71469592      -2.71397209       0.00000000
