10
Lattice="16.28999089631971 0.0 0.0 0.0 16.28999089631971 0.0 0.0 0.0 34.395419527814205" Properties=species:S:1:pos:R:3:initial_magmoms:R:1 pbc="T T T"
Si      -1.28821320      -1.96670799      -0.45116497       0.00000000
Si      -0.62087706       0.84885561       2.16092783       0.00000000
Si       2.09550717      -1.13446818       0.62723522       0.00000000
Si      -0.43919469       2.12821424      -1.36271289       0.00000000
Si       1.20915378      -0.49076883       2.81609215       0.00000000
Si       0.70970643       3.50980172       0.33556190       0.00000000
Si       1.69145164      -3.38675616      -0.08853386       0.00000000
Si       2.81231279       2.47624194       0.86129618       0.00000000
Si      -2.88093537       2.26394415      -1.29196147       0.00000000
Si      -0.48374784      -3.83533389       0.77572033       0.00000000
