10
Lattice="16.28999089631971 0.0 0.0 0.0 16.28999089631971 0.0 0.0 0.0 34.395419527814205" Properties=species:S:1:pos:R:3:initial_magmoms:R:1 pbc="T T T"
Si       2.06912322       0.41956524       0.93933943       0.00000000
Si      -0.58178106      -2.11333428       0.79769902       0.00000000
Si      -1.38585546       1.47611835       1.16755317       0.00000000
Si      -0.38102310       0.58327974      -2.25606562       0.00000000
Si       1.23232221       0.17762616       3.16812947       0.00000000
Si       1.60798590       1.91550852      -2.40007932       0.00000000
Si      -2.60528318      -2.32964919      -0.36679296       0.00000000
Si      -1.07788975       0.60338160       3.32621090       0.00000000
Si       2.66968665       2.38703886      -0.29807087       0.00000000
Si      -2.62615067       1.39769829      -2.25166300       0.00000000
