10
Lattice="16.28999089631971 0.0 0.0 0.0 16.28999089631971 0.0 0.0 0.0 34.376317263855086" Properties=species:S:1:pos:R:3:initial_magmoms:R:1 pbc="T T T"
Si      -1.35949824      -1.34378328       1.39406357       0.00000000
Si       1.35532800       1.37238363       1.38986966       0.00000000
Si      -1.35619137       1.30119633      -1.49786292       0.00000000
Si       1.38451968      -1.46956488      -1.50575573       0.00000000
Si       2.70128925      -2.69523656       0.03923715       0.00000000
Si      -2.70953199      -2.69139716       0.01687534       0.00000000
Si      -2.70443322       2.73574260       0.00991414       0.00000000
Si       0.20051361       2.58931179      -2.83943181       0.00000000
Si      -0.00345348      -2.70069867       2.75464459       0.00000000
Si       2.71730232       2.73917979      -0.00311106       0.00000000
