10
Lattice="16.28999089631971 0.0 0.0 0.0 16.28999089631971 0.0 0.0 0.0 34.376317263855086" Properties=species:S:1:pos:R:3:initial_magmoms:R:1 pbc="T T T"
Si       1.59309684       1.00743876       1.45642225       0.00000000
Si      -1.27650069       1.44577008      -1.40317330       0.00000000
Si      -1.72014255      -1.02910935       1.30155685       0.00000000
Si       1.44847422      -1.29323215      -1.39750121       0.00000000
Si      -0.33477579      -2.31431053       2.90019400       0.00000000
Si       2.65157217       2.64756483      -0.09484431       0.00000000
Si      -2.62632267       0.07902279      -2.78142376       0.00000000
Si       0.09032805      -2.63413118      -2.78056435       0.00000000
Si      -2.86120818       2.64811869       0.03753896       0.00000000
Si      -2.73935898      -2.80636694       0.07019648       0.00000000
