10
Lattice="16.28999089631971 0.0 0.0 0.0 16.28999089631971 0.0 0.0 0.0 34.376317263855086" Properties=species:S:1:pos:R:3:initial_magmoms:R:1 pbc="T T T"
Si      -0.86455917      -1.84691785      -1.20836260       0.00000000
Si      -1.77266151      -0.44854515       1.52362799       0.00000000
Si       0.23543937       2.34675369      -0.52547668       0.00000000
Si       1.06331346       1.47483144      -2.65213436       0.00000000
Si      -2.11074417      -2.68730333       0.94631179       0.00000000
Si      -2.24992593      -0.56171667      -2.80699975       0.00000000
Si       2.15358687       2.86694226       0.81021587       0.00000000
Si      -0.81726930       0.17873388       3.58167050       0.00000000
Si       1.80465507      -2.24312390       2.29568613       0.00000000
Si       1.49494959      -0.17075178       3.58503938       0.00000000
