10
Lattice="16.28999089631971 0.0 0.0 0.0 16.28999089631971 0.0 0.0 0.0 34.376317263855086" Properties=species:S:1:pos:R:3:initial_magmoms:R:1 pbc="T T T"
Si      -1.35588186      -1.35657662      -1.35683400       0.00000000
Si      -1.35423657       1.35890040       1.36144043       0.00000000
Si       1.35943308       1.35857460      -1.35690275       0.00000000
Si       1.36241415      -1.35425358       1.36229984       0.00000000
Si      -2.71334711       0.00167135      -2.71418365       0.00000000
Si       0.00158013      -2.71381856      -2.71421802       0.00000000
Si      -2.71541920      -2.71445387       0.00013751       0.00000000
Si       2.71412577      -2.71596884      -0.00061877       0.00000000
Si       0.00162900       2.71632981      -2.71408052       0.00000000
Si       2.71494027       2.71574337      -0.00010313       0.00000000
