10
Lattice="16.28999089631971 0.0 0.0 0.0 16.28999089631971 0.0 0.0 0.0 34.376317263855086" Properties=species:S:1:pos:R:3:initial_magmoms:R:1 pbc="T T T"
Si       2.19507750       0.40119664       0.76459848       0.00000000
Si      -1.21402854       1.47759097       1.40032007       0.00000000
Si      -0.23973993      -2.35768495       0.08085314       0.00000000
Si      -0.59691447       0.52430017      -2.27884172       0.00000000
Si       0.89772561      -2.81562943      -1.93280952       0.00000000
Si       1.95708060       2.71750432       1.31300417       0.00000000
Si       3.39560163       0.25945735      -1.21341592       0.00000000
Si      -2.58185097      -2.51450878       0.34393525       0.00000000
Si      -3.60916353      -0.52925884      -0.48453446       0.00000000
Si      -0.21175371       3.60368032       0.79883731       0.00000000
