10
Lattice="16.28999089631971 0.0 0.0 0.0 16.28999089631971 0.0 0.0 0.0 34.376317263855086" Properties=species:S:1:pos:R:3:initial_magmoms:R:1 pbc="T T T"
Si       1.35692442      -1.35329175       1.35814030       0.00000000
Si      -1.35819504      -1.35549090      -1.35728089       0.00000000
Si       1.35728280       1.35951453      -1.35686838       0.00000000
Si      -1.35744570       1.36189287       1.36305612       0.00000000
Si       2.69202024       0.00114030       2.72954987       0.00000000
Si       2.71301805      -2.71365336      -0.00034376       0.00000000
Si      -0.00029322      -2.71306692      -2.71432115       0.00000000
Si      -2.71626791      -2.71303434      -0.00085941       0.00000000
Si       2.71494027       0.00190593      -2.71473367       0.00000000
Si       2.71376739       2.71609686      -0.00089378       0.00000000
