10
Lattice="16.28999089631971 0.0 0.0 0.0 16.28999089631971 0.0 0.0 0.0 34.376317263855086" Properties=species:S:1:pos:R:3:initial_magmoms:R:1 pbc="T T T"
Si      -0.69168969       1.70715942       1.49457998       0.00000000
Si       2.17474758      -0.69398658       0.70921820       0.00000000
Si      -1.31808906      -2.01339513       0.17769128       0.00000000
Si      -0.62372781       1.10073159      -2.18165982       0.00000000
Si      -2.77068465       2.40955164       0.56298126       0.00000000
Si      -2.79347436      -1.79005923      -1.70984460       0.00000000
Si       2.83253778      -2.45721618      -0.70041786       0.00000000
Si       0.85509468       3.49835895       1.29860049       0.00000000
Si       3.66932250       1.18715004       0.63194019       0.00000000
Si      -0.42966504       1.05212223       3.79246619       0.00000000
