10
Lattice="16.28999089631971 0.0 0.0 0.0 16.28999089631971 0.0 0.0 0.0 34.376317263855086" Properties=species:S:1:pos:R:3:initial_magmoms:R:1 pbc="T T T"
Si      -0.07542270       0.74417607      -2.17849720       0.00000000
Si       2.20261977      -0.58782465       0.33853816       0.00000000
Si       0.18609696       1.88169048       1.40365457       0.00000000
Si      -1.06829820      -2.07956511       0.34953859       0.00000000
Si       0.25080084       0.70483572       3.45238110       0.00000000
Si       2.27151018      -0.40791789       2.72212458       0.00000000
Si       0.43455204      -1.23994593      -3.45396241       0.00000000
Si       2.52047025      -2.64735306      -0.66435708       0.00000000
Si      -2.30402502       1.33719723      -2.59726973       0.00000000
Si       0.99644301       2.91626838      -2.10840385       0.00000000
