10
Lattice="16.28999089631971 0.0 0.0 0.0 16.28999089631971 0.0 0.0 0.0 34.376317263855086" Properties=species:S:1:pos:R:3:initial_magmoms:R:1 pbc="T T T"
Si       1.35469269       1.36187658       1.38141996       0.00000000
Si      -1.35817875      -1.35840681       1.38537324       0.00000000
Si      -1.45430604       1.35742941      -1.34433820       0.00000000
Si       1.41097464      -1.24528905      -1.58644386       0.00000000
Si      -2.70244584      -2.70606222       0.00026126       0.00000000
Si       2.71928970      -2.70262503      -0.01276393       0.00000000
Si       2.70529659       2.73297330       0.00542115       0.00000000
Si      -0.00158013      -2.71072116       2.74320415       0.00000000
Si       2.71494027       0.00188964       2.74358229       0.00000000
Si      -2.71523349       0.00382815       2.74413231       0.00000000
