10
Lattice="16.28999089631971 0.0 0.0 0.0 16.28999089631971 0.0 0.0 0.0 34.376317263855086" Properties=species:S:1:pos:R:3:initial_magmoms:R:1 pbc="T T T"
Si       1.35648459       1.35658233       1.35597459       0.00000000
Si       1.35765747      -1.35760860      -1.35786529       0.00000000
Si      -1.35793440       1.35783666      -1.35759028       0.00000000
Si      -1.35728280      -1.35951453       1.35686838       0.00000000
Si      -0.00035838      -2.71280628       2.71500868       0.00000000
Si      -2.71428867       0.00087966      -2.71493993       0.00000000
Si      -0.00063531      -2.71366965      -2.71586809       0.00000000
Si       2.71480995       2.71508688      -0.00024063       0.00000000
Si       2.71492398      -2.71516833      -0.00017188       0.00000000
Si      -2.71531494       2.71484253      -0.00020626       0.00000000
