10
Lattice="16.28999089631971 0.0 0.0 0.0 16.28999089631971 0.0 0.0 0.0 34.376317263855086" Properties=species:S:1:pos:R:3:initial_magmoms:R:1 pbc="T T T"
Si       1.35754344       1.35692442       1.35700588       0.00000000
Si      -1.35738054      -1.35812988       1.35686838       0.00000000
Si      -1.35858600       1.35725022      -1.35734965       0.00000000
Si       1.35619137      -1.35703845      -1.36319362       0.00000000
Si      -2.71290402       2.71347417       0.00055002       0.00000000
Si       0.00057015       2.71404432       2.71404614       0.00000000
Si      -2.71373481      -2.71508688      -0.00048127       0.00000000
Si       2.71456560       2.71428867      -0.00003438       0.00000000
Si      -2.71476108      -0.00112401       2.71425240       0.00000000
Si       2.71536381      -0.00087966       2.71421802       0.00000000
