10
Lattice="16.28999089631971 0.0 0.0 0.0 16.28999089631971 0.0 0.0 0.0 34.376317263855086" Properties=species:S:1:pos:R:3:initial_magmoms:R:1 pbc="T T T"
Si      -1.30779378       1.23416298       1.46841959       0.00000000
Si       1.34099280       1.36386396      -1.36415616       0.00000000
Si      -1.37510406      -1.34788347      -1.36064977       0.00000000
Si       1.17302661      -1.48639734       1.49726134       0.00000000
Si      -2.44099134      -0.50438727       2.72384340       0.00000000
Si       2.67436188      -2.70863604       0.00584398       0.00000000
Si       2.68669341       2.72165175       0.02784483       0.00000000
Si       2.69610903       0.00632052      -2.72459968       0.00000000
Si      -2.72870858       2.70381420       0.01258174       0.00000000
Si      -0.01765836      -2.70977634      -2.72370589       0.00000000
