10
Lattice="16.28999089631971 0.0 0.0 0.0 16.28999089631971 0.0 0.0 0.0 34.376317263855086" Properties=species:S:1:pos:R:3:initial_magmoms:R:1 pbc="T T T"
Si       1.41962463      -1.22354190      -1.50812426       0.00000000
Si       1.70893503       0.94074750       1.42238967       0.00000000
Si      -1.27624005       1.48199904      -1.46319439       0.00000000
Si      -1.25244036      -1.49433057       1.49382370       0.00000000
Si       0.57164868      -2.58448995       2.47767445       0.00000000
Si       2.61723285       2.68182270      -0.05214890       0.00000000
Si       2.74317084      -2.59840161      -0.22179612       0.00000000
Si       3.56413797      -0.86055183       1.11922476       0.00000000
Si       0.09298332      -2.58670539      -2.85636417       0.00000000
Si      -2.62194066       0.12421125      -2.85519538       0.00000000
