10
Lattice="16.28999089631971 0.0 0.0 0.0 16.28999089631971 0.0 0.0 0.0 34.376317263855086" Properties=species:S:1:pos:R:3:initial_magmoms:R:1 pbc="T T T"
Si       1.44104598       0.51678396       1.72332012       0.00000000
Si       0.88094691      -0.39705246      -2.17017812       0.00000000
Si      -0.96471009       2.19980160      -0.18607911       0.00000000
Si      -1.09978677      -1.93468185       1.91771831       0.00000000
Si       2.70503595      -1.48721184      -1.18632737       0.00000000
Si       2.73408102       2.36514510      -0.00275011       0.00000000
Si      -2.26116603       2.10810519       1.89678312       0.00000000
Si      -2.74098798      -0.21504429       2.37867060       0.00000000
Si       0.85082670       3.83481261      -0.14431186       0.00000000
Si      -0.65651958      -1.62877194      -3.65777971       0.00000000
