10
Lattice="16.28999089631971 0.0 0.0 0.0 16.28999089631971 0.0 0.0 0.0 34.376317263855086" Properties=species:S:1:pos:R:3:initial_magmoms:R:1 pbc="T T T"
Si       0.94656303      -1.52907714      -1.46786957       0.00000000
Si       1.38722382       1.08771588       1.55284787       0.00000000
Si      -0.91375497       1.72773369      -1.31795436       0.00000000
Si      -1.59918930      -0.67179960       1.63074465       0.00000000
Si      -0.07977213       2.84905584       2.02830698       0.00000000
Si      -2.01966678       1.55781270       2.40166837       0.00000000
Si      -0.60022134      -3.32027667      -1.27189007       0.00000000
Si       1.42527726      -0.14812497      -3.31772899       0.00000000
Si       1.98179253      -0.63527742       2.96389335       0.00000000
Si       0.03028311       3.61934478      -0.28559860       0.00000000
