10
Lattice="16.28999089631971 0.0 0.0 0.0 16.28999089631971 0.0 0.0 0.0 34.376317263855086" Properties=species:S:1:pos:R:3:initial_magmoms:R:1 pbc="T T T"
Si      -1.23090498      -1.37844351      -1.55353540       0.00000000
Si       0.29243808      -1.46499228       1.96240754       0.00000000
Si       1.71082467       1.25646399      -1.30753833       0.00000000
Si      -1.47020508       1.67420542       1.27079003       0.00000000
Si       3.39563421       1.35344404       0.73651301       0.00000000
Si      -2.78966250      -2.66310549      -0.08587209       0.00000000
Si      -2.41546491      -0.00433314      -3.04405897       0.00000000
Si      -1.52309871      -3.10000329       1.92064030       0.00000000
Si      -0.59895072      -0.20953827       3.93096845       0.00000000
Si       0.31304493       2.69528380      -3.02690518       0.00000000
