10
Lattice="16.28999089631971 0.0 0.0 0.0 16.28999089631971 0.0 0.0 0.0 34.376317263855086" Properties=species:S:1:pos:R:3:initial_magmoms:R:1 pbc="T T T"
Si       1.18493460      -1.26755748       1.63538546       0.00000000
Si      -0.30970548       2.07237212       1.28935325       0.00000000
Si      -1.79795988      -1.48753764      -0.84387031       0.00000000
Si       2.03341554       0.09397296      -1.59310256       0.00000000
Si      -1.80465507       2.24312390      -2.29568613       0.00000000
Si       0.04746906      -0.80961300       3.64904812       0.00000000
Si      -2.62192437       2.42185778       1.28598437       0.00000000
Si       0.28720899       1.54807195       3.56819497       0.00000000
Si       1.19081529      -3.56923674       1.07584183       0.00000000
Si       2.82895398       2.49693839      -1.08010449       0.00000000
