10
Lattice="16.28999089631971 0.0 0.0 0.0 16.28999089631971 0.0 0.0 0.0 34.376317263855086" Properties=species:S:1:pos:R:3:initial_magmoms:R:1 pbc="T T T"
Si       1.13746554      -0.45794448      -2.01366266       0.00000000
Si      -2.34211104      -0.15682383       0.26308210       0.00000000
Si       0.23973993       2.35768495      -0.08085314       0.00000000
Si       0.93757095      -1.45013580       1.65312364       0.00000000
Si      -0.98517033      -2.68845273       2.10152858       0.00000000
Si      -2.45216628      -0.92711277       2.57698769       0.00000000
Si      -0.04746906       0.80961300      -3.64904812       0.00000000
Si      -0.35717454       2.88198512      -2.35969486       0.00000000
Si       2.43481743       2.75888159       0.68374533       0.00000000
Si       3.42616167       0.23871366      -1.58144898       0.00000000
