10
Lattice="16.28999089631971 0.0 0.0 0.0 16.28999089631971 0.0 0.0 0.0 34.376317263855086" Properties=species:S:1:pos:R:3:initial_magmoms:R:1 pbc="T T T"
Si      -1.10669699      -1.37711620      -1.50007473       0.00000000
Si      -1.37444660       1.30665022       1.39988349       0.00000000
Si       0.98460832       1.57851403      -1.45531674       0.00000000
Si       1.35909913      -1.40100436       1.38607107       0.00000000
Si      -0.69119773       3.43790350      -1.15043263       0.00000000
Si       0.81397058      -2.21470110      -2.84889905       0.00000000
Si       2.71243976       2.59158913      -0.12866719       0.00000000
Si      -2.68281543       2.71560490      -0.00291511       0.00000000
Si      -0.00868909       2.66388415       2.76167799       0.00000000
Si      -1.96511061       0.13786716      -3.31476716       0.00000000
