10
Lattice="16.28999089631971 0.0 0.0 0.0 16.28999089631971 0.0 0.0 0.0 34.376317263855086" Properties=species:S:1:pos:R:3:initial_magmoms:R:1 pbc="T T T"
Si      -1.24740090       1.74261460      -0.85112371       0.00000000
Si      -0.80365412      -0.84132637       2.05281731       0.00000000
Si      -0.01240646      -1.54310187      -1.79760739       0.00000000
Si       2.24264104       0.73807547       0.29728656       0.00000000
Si       1.09481506      -2.20216269       2.70122377       0.00000000
Si       2.96666638      -0.73911151       2.02566000       0.00000000
Si      -0.18503485       2.35992415      -2.92350116       0.00000000
Si      -0.68328079       1.03010630       3.59631482       0.00000000
Si      -3.04690833      -1.72739064       1.64683278       0.00000000
Si      -3.44694186       1.14553723      -1.38086306       0.00000000
