10
Lattice="16.28999089631971 0.0 0.0 0.0 16.28999089631971 0.0 0.0 0.0 34.376317263855086" Properties=species:S:1:pos:R:3:initial_magmoms:R:1 pbc="T T T"
Si      -1.59018093      -1.74094488       0.07263720       0.00000000
Si      -0.01941768       1.06158672      -2.16955935       0.00000000
Si       1.83868488      -0.69558300       1.50963682       0.00000000
Si      -1.17294516       1.53365463       1.57938640       0.00000000
Si       1.87488126      -2.89986435       0.69405823       0.00000000
Si      -1.90298151       2.43315326      -1.75305565       0.00000000
Si      -1.24108623       3.52177487       0.24799089       0.00000000
Si      -0.31701969      -3.72267225       0.27923898       0.00000000
Si       2.09163600       2.11796783      -2.27842921       0.00000000
Si      -3.30225993      -1.38660480      -1.55752305       0.00000000
