10
Lattice="16.28999089631971 0.0 0.0 0.0 16.28999089631971 0.0 0.0 0.0 34.376317263855086" Properties=species:S:1:pos:R:3:initial_magmoms:R:1 pbc="T T T"
Si      -1.35278676      -1.34104167       1.36714690       0.00000000
Si       1.35912357       1.37614662       1.36326238       0.00000000
Si      -1.41799563       1.32771645      -1.36915448       0.00000000
Si       1.39608558      -1.36932111      -1.44695157       0.00000000
Si       0.61173837       1.92474495      -2.52515367       0.00000000
Si      -2.70813105      -2.68714953      -0.03078401       0.00000000
Si       2.72855871      -2.68343541      -0.00022001       0.00000000
Si       0.00078192      -2.69542485       2.72528720       0.00000000
Si       2.51975349       0.19741851      -2.89666841       0.00000000
Si      -2.71248048       0.01736514       2.72556221       0.00000000
