10
Lattice="16.28999089631971 0.0 0.0 0.0 16.28999089631971 0.0 0.0 0.0 34.376317263855086" Properties=species:S:1:pos:R:3:initial_magmoms:R:1 pbc="T T T"
Si      -1.35356868       1.35438318      -1.35814030       0.00000000
Si       1.35863487       1.35589815       1.35848406       0.00000000
Si      -1.35646830      -1.35902583       1.35814030       0.00000000
Si       1.35866745      -1.36168110      -1.35913722       0.00000000
Si      -0.00078192       2.69542485      -2.72528720       0.00000000
Si      -2.71326240       2.71278999       0.00027501       0.00000000
Si       0.00094482       2.71433754       2.71535244       0.00000000
Si      -2.71422351      -0.00131949       2.71559308       0.00000000
Si       2.71713942       2.71306692       0.00024063       0.00000000
Si       2.71551042      -0.00099369       2.71555870       0.00000000
