10
Lattice="16.28999089631971 0.0 0.0 0.0 16.28999089631971 0.0 0.0 0.0 34.376317263855086" Properties=species:S:1:pos:R:3:initial_magmoms:R:1 pbc="T T T"
Si       1.32664131       1.36316349       1.34823992       0.00000000
Si      -1.35980775       1.35337320      -1.35927472       0.00000000
Si       1.35565380      -1.36184400      -1.35882783       0.00000000
Si      -1.38155490      -1.36158336       1.37116893       0.00000000
Si       2.65018752      -0.01169622       2.63456805       0.00000000
Si      -2.71492398       2.71091664       0.00116880       0.00000000
Si      -0.00148239       2.71187775      -2.71548995       0.00000000
Si       2.71479366       2.71265967       0.00130630       0.00000000
Si       2.71379997      -0.00272043      -2.71566183       0.00000000
Si       2.71217097      -2.71738377      -0.00020626       0.00000000
