10
Lattice="16.28999089631971 0.0 0.0 0.0 16.28999089631971 0.0 0.0 0.0 34.376317263855086" Properties=species:S:1:pos:R:3:initial_magmoms:R:1 pbc="T T T"
Si       0.82054359       0.56058777      -2.10857573       0.00000000
Si      -0.78361416       1.75036050       1.34098651       0.00000000
Si       1.99444986      -0.63526113       1.15779501       0.00000000
Si      -1.54697985      -1.80445959      -0.36590173       0.00000000
Si       1.76767677      -1.77749964      -2.42205354       0.00000000
Si      -0.61582716       0.58834593       3.39507574       0.00000000
Si       1.47466854      -2.96805429       1.53218769       0.00000000
Si       3.47868063      -1.17955890      -0.66397894       0.00000000
Si       2.16806868       2.50012404      -1.86271617       0.00000000
Si      -0.70955982      -3.62344986       0.93916151       0.00000000
