10
Lattice="16.28999089631971 0.0 0.0 0.0 16.28999089631971 0.0 0.0 0.0 34.376317263855086" Properties=species:S:1:pos:R:3:initial_magmoms:R:1 pbc="T T T"
Si      -1.30412853       1.42073235       1.35655555       0.00000000
Si       1.41799563      -1.32771645       1.36915448       0.00000000
Si       2.02973400       0.59702850      -1.15599919       0.00000000
Si      -0.70209900       0.96772374      -2.66286119       0.00000000
Si      -2.00885022      -1.12311405      -2.38905367       0.00000000
Si      -2.59845048      -2.55753000      -0.23530946       0.00000000
Si      -2.65473243       0.04963563       2.73255436       0.00000000
Si       0.06520887      -2.66875812       2.73630138       0.00000000
Si       2.76056856       2.67967242      -0.03652830       0.00000000
Si       0.06221151       2.76773616       2.73588887       0.00000000
