10
Lattice="16.28999089631971 0.0 0.0 0.0 16.28999089631971 0.0 0.0 0.0 34.376317263855086" Properties=species:S:1:pos:R:3:initial_magmoms:R:1 pbc="T T T"
Si      -0.12037333      -1.87143267      -1.54349751       0.00000000
Si       0.26281960       2.26171989      -0.85263627       0.00000000
Si       1.94089811       0.23315877       1.49220801       0.00000000
Si      -0.99849296      -0.96470195       2.12569514       0.00000000
Si       1.22006887       2.61430065       1.97388924       0.00000000
Si      -2.95495454       0.29450691       2.07055550       0.00000000
Si      -2.67792680       2.33033337       0.95136511       0.00000000
Si      -0.67567403       3.56179221       0.87993108       0.00000000
Si       1.77809585      -3.23226899      -0.89509105       0.00000000
Si       0.68328079      -1.03010630      -3.59631482       0.00000000
