10
Lattice="16.28999089631971 0.0 0.0 0.0 16.28999089631971 0.0 0.0 0.0 34.376317263855086" Properties=species:S:1:pos:R:3:initial_magmoms:R:1 pbc="T T T"
Si       1.32354621      -1.37485971       1.28632813       0.00000000
Si      -1.32664131      -1.36316349      -1.34823992       0.00000000
Si       1.38815235       1.34949618      -1.34693362       0.00000000
Si      -1.41962463       1.22354190       1.50812426       0.00000000
Si       2.14451334       0.36299007       2.62734902       0.00000000
Si       0.28931040       2.16428940       2.93051393       0.00000000
Si      -2.68644906      -0.00979029      -2.70751464       0.00000000
Si      -2.69586468       2.70554094       0.04492987       0.00000000
Si       0.02938716       2.70550836      -2.70586457       0.00000000
Si       0.02901249      -2.72500749      -2.70706774       0.00000000
