10
Lattice="16.28999089631971 0.0 0.0 0.0 16.28999089631971 0.0 0.0 0.0 34.376317263855086" Properties=species:S:1:pos:R:3:initial_magmoms:R:1 pbc="T T T"
Si      -1.32354621       1.37485971      -1.28632813       0.00000000
Si       1.42739496      -1.35379674      -1.26962124       0.00000000
Si       0.82096713       1.73784978       1.34102089       0.00000000
Si      -1.26578187      -1.56879216       1.21004704       0.00000000
Si      -2.17152216       0.01391166       2.69947057       0.00000000
Si       1.98907416       0.35344413       2.87599306       0.00000000
Si      -2.65018752       0.01169622      -2.63456805       0.00000000
Si       0.06198345      -2.70568755      -2.63477431       0.00000000
Si      -2.74317084       2.59840161       0.22179612       0.00000000
Si       2.71241532       2.63814921       0.14888391       0.00000000
