10
Lattice="16.28999089631971 0.0 0.0 0.0 16.28999089631971 0.0 0.0 0.0 34.376317263855086" Properties=species:S:1:pos:R:3:initial_magmoms:R:1 pbc="T T T"
Si       2.10963645       0.04575861       0.98660086       0.00000000
Si       0.16104294       0.38713185      -2.29602989       0.00000000
Si      -1.07186571      -2.17209231      -0.07009335       0.00000000
Si      -0.98047881       1.76096529       1.44903134       0.00000000
Si       1.18949580       0.28165410       3.12852163       0.00000000
Si      -3.30046803      -1.57907115      -0.48886588       0.00000000
Si       2.73707838      -2.19238965       1.15291357       0.00000000
Si      -2.01570831       0.86716557      -2.98273159       0.00000000
Si      -0.99644301      -2.91626838       2.10840385       0.00000000
Si      -0.81034605      -1.03457790       3.51205842       0.00000000
