10
Lattice="16.28999089631971 0.0 0.0 0.0 16.28999089631971 0.0 0.0 0.0 34.376317263855086" Properties=species:S:1:pos:R:3:initial_magmoms:R:1 pbc="T T T"
Si       1.77419277      -0.04303818       1.47037904       0.00000000
Si      -0.65520009       2.24378460      -0.01120669       0.00000000
Si       0.92014065      -0.23589549      -2.14192077       0.00000000
Si      -1.99984185      -1.31623200       0.38353679       0.00000000
Si      -2.16997461       1.47931119      -1.67949029       0.00000000
Si      -1.18949580      -0.28165410      -3.12852163       0.00000000
Si       1.54758258      -2.47404375      -1.97560806       0.00000000
Si      -1.67866821       2.18510802       2.22954605       0.00000000
Si       2.05718265      -2.33899965       1.70300371       0.00000000
Si      -3.57501969       0.26772615      -0.23183401       0.00000000
