10
Lattice="16.28999089631971 0.0 0.0 0.0 16.28999089631971 0.0 0.0 0.0 34.376317263855086" Properties=species:S:1:pos:R:3:initial_magmoms:R:1 pbc="T T T"
Si       2.24474571       0.38859795      -0.66116008       0.00000000
Si      -1.30675122      -2.09083779       0.27380752       0.00000000
Si      -0.91277757       1.27816227      -1.92885624       0.00000000
Si       0.70209900      -0.96772374       2.66286119       0.00000000
Si       2.73183300      -0.37069524       1.50686200       0.00000000
Si      -3.39897366      -0.97026498      -0.43926083       0.00000000
Si      -2.04165828       1.79510913       2.47034683       0.00000000
Si      -0.94897395       3.48244362      -1.11327766       0.00000000
Si       2.54008341      -0.94998393      -2.68802325       0.00000000
Si      -3.10467852       0.45535437      -2.34367549       0.00000000
