10
Lattice="16.28999089631971 0.0 0.0 0.0 16.28999089631971 0.0 0.0 0.0 34.376317263855086" Properties=species:S:1:pos:R:3:initial_magmoms:R:1 pbc="T T T"
Si       1.35602847       1.35723824      -1.35789967       0.00000000
Si       1.35775521      -1.35751086       1.35714339       0.00000000
Si      -1.35739683       1.35717929       1.35789967       0.00000000
Si      -1.35816246      -1.35754344      -1.35683400       0.00000000
Si       0.00040725      -2.71077003      -2.71665874       0.00000000
Si       2.71467963      -0.00241092       2.71339299       0.00000000
Si      -2.71446786       2.71456627      -0.00010313       0.00000000
Si      -2.71437012      -0.00073305      -2.71473367       0.00000000
Si      -0.00200367       2.71375666       2.71597122       0.00000000
Si       2.71487511       2.71495397      -0.00017188       0.00000000
