10
Lattice="16.28999089631971 0.0 0.0 0.0 16.28999089631971 0.0 0.0 0.0 34.376317263855086" Properties=species:S:1:pos:R:3:initial_magmoms:R:1 pbc="T T T"
Si      -1.71082467      -1.25646399       1.30753833       0.00000000
Si       1.29953475      -1.26275193      -1.71926372       0.00000000
Si      -1.39777974       1.43881981      -1.71936685       0.00000000
Si       0.81173070       2.18768903       1.23964507       0.00000000
Si       1.68480954       0.09698005       2.04405134       0.00000000
Si       2.48140683      -2.77716807      -0.30189299       0.00000000
Si       2.57370597       2.77766396      -0.38649315       0.00000000
Si       3.62159280      -1.15308765       1.00031702       0.00000000
Si      -2.94172965      -2.63490750      -0.24599706       0.00000000
Si      -2.84625396       2.73205196      -0.32186564       0.00000000
