10
Lattice="16.28999089631971 0.0 0.0 0.0 16.28999089631971 0.0 0.0 0.0 34.376317263855086" Properties=species:S:1:pos:R:3:initial_magmoms:R:1 pbc="T T T"
Si      -1.37529954      -1.91953215       0.38951827       0.00000000
Si      -0.77123376       1.69726392       1.53999112       0.00000000
Si      -0.78146388       0.96943419      -2.09540959       0.00000000
Si       2.34896913      -0.73362015       0.05046446       0.00000000
Si      -3.27005460      -0.71941527       1.13916304       0.00000000
Si       2.31401079      -2.70736542      -1.16827980       0.00000000
Si      -2.32082001       0.51836409       2.92810759       0.00000000
Si       0.59419404       0.05879061      -3.77084348       0.00000000
Si      -0.57228399       3.34786283      -1.80822967       0.00000000
Si      -0.21675474      -3.51139095       1.71795742       0.00000000
