10
Lattice="16.28999089631971 0.0 0.0 0.0 16.28999089631971 0.0 0.0 0.0 34.376317263855086" Properties=species:S:1:pos:R:3:initial_magmoms:R:1 pbc="T T T"
Si      -0.64907505      -1.34817669      -1.78564442       0.00000000
Si      -1.89475506       1.20011688       0.74964477       0.00000000
Si       1.15854480      -1.59185880       1.32843915       0.00000000
Si       1.37529954       1.91953215      -0.38951827       0.00000000
Si      -0.94552047       2.43789624       2.53858932       0.00000000
Si       2.00362113      -0.41713803       3.19400855       0.00000000
Si       2.87041203      -2.55155157       0.00780343       0.00000000
Si       0.60406578       3.61679607       1.15047285       0.00000000
Si       0.59383566       2.88896634      -2.48492786       0.00000000
Si       1.18934919      -2.13151392      -2.98895370       0.00000000
