10
Lattice="16.28999089631971 0.0 0.0 0.0 16.28999089631971 0.0 0.0 0.0 34.376317263855086" Properties=species:S:1:pos:R:3:initial_magmoms:R:1 pbc="T T T"
Si      -1.74480561       1.15792578       1.06821028       0.00000000
Si       1.15199622      -1.39701411       1.52080913       0.00000000
Si      -0.84685194      -0.74907936      -2.09668151       0.00000000
Si       1.47093813       1.82741220      -0.48185311       0.00000000
Si       1.13770989      -1.83212001      -2.86458012       0.00000000
Si      -2.27056536       2.89434271      -0.40794398       0.00000000
Si      -0.03241710       3.63903517      -0.73383165       0.00000000
Si      -0.44000919      -3.35994282       1.72723903       0.00000000
Si       3.33474219       1.55204604       0.99316674       0.00000000
Si      -3.63372885      -0.26609715       1.27512145       0.00000000
