10
Lattice="16.28999089631971 0.0 0.0 0.0 16.28999089631971 0.0 0.0 0.0 34.376317263855086" Properties=species:S:1:pos:R:3:initial_magmoms:R:1 pbc="T T T"
Si      -1.35694738       1.35707103       1.35731527       0.00000000
Si       1.35716714      -1.35749457       1.35731527       0.00000000
Si      -1.35832473      -1.35703845      -1.35683400       0.00000000
Si       1.35835631       1.35839052      -1.35721214       0.00000000
Si      -0.00301202       2.71350675       2.71497430       0.00000000
Si      -2.71597536       0.00094482      -2.71273984       0.00000000
Si      -0.00090572      -2.71503801       2.71373675       0.00000000
Si      -2.71485135      -2.71484253      -0.00017188       0.00000000
Si       2.71536218      -0.00200367       2.71459616       0.00000000
Si       2.71471058       2.71534752       0.00013751       0.00000000
