10
Lattice="16.28999089631971 0.0 0.0 0.0 16.28999089631971 0.0 0.0 0.0 34.376317263855086" Properties=species:S:1:pos:R:3:initial_magmoms:R:1 pbc="T T T"
Si      -1.80586053      -1.01317284      -1.12000270       0.00000000
Si      -1.38455226       1.31768181       1.39956379       0.00000000
Si       1.30836884      -1.40895468       1.40279860       0.00000000
Si       1.99161770       0.72229860      -1.14751752       0.00000000
Si      -2.71702539       2.63179611      -0.04716777       0.00000000
Si       2.68281543      -2.71560490       0.00291511       0.00000000
Si      -1.23875676      -1.31852889      -3.36699169       0.00000000
Si      -0.04010598       2.66297517       2.77036833       0.00000000
Si       2.70611828       2.73168639      -0.03156779       0.00000000
Si       2.67412635      -0.05172075       2.76459311       0.00000000
