10
Lattice="16.28999089631971 0.0 0.0 0.0 16.28999089631971 0.0 0.0 0.0 34.376317263855086" Properties=species:S:1:pos:R:3:initial_magmoms:R:1 pbc="T T T"
Si       1.34444628       1.34529336       1.37080454       0.00000000
Si      -1.33247313       1.31411430      -1.44673156       0.00000000
Si       1.38455226      -1.31768181      -1.39956379       0.00000000
Si      -1.36910934      -1.37367054       1.36637000       0.00000000
Si      -0.42130827      -2.33085465      -2.51956649       0.00000000
Si      -2.17500822      -0.51552963      -2.80053842       0.00000000
Si       2.69860140       2.68975593       0.00853564       0.00000000
Si      -2.72855871       2.68343541       0.00022001       0.00000000
Si       2.69292110      -2.72663649       0.00323481       0.00000000
Si      -0.01063737       2.70107748       2.72574785       0.00000000
