10
Lattice="16.28999089631971 0.0 0.0 0.0 16.28999089631971 0.0 0.0 0.0 34.376317263855086" Properties=species:S:1:pos:R:3:initial_magmoms:R:1 pbc="T T T"
Si       1.57296240       0.98311779      -1.51417449       0.00000000
Si      -0.98137476      -1.65464046      -1.47361042       0.00000000
Si       1.59521454      -1.27837404       1.40740159       0.00000000
Si      -1.82860137       1.36598166       1.22812900       0.00000000
Si       1.58706954       0.18383265       3.30655668       0.00000000
Si       0.31614003       2.37972465      -2.91858534       0.00000000
Si      -2.39028057      -0.34125921      -2.91748530       0.00000000
Si       3.32521973       1.86689916      -0.19326376       0.00000000
Si      -3.10919085      -0.32912316       2.46763656       0.00000000
Si      -1.18231191      -3.79182330       0.36772367       0.00000000
