10
Lattice="16.28999089631971 0.0 0.0 0.0 16.28999089631971 0.0 0.0 0.0 34.376317263855086" Properties=species:S:1:pos:R:3:initial_magmoms:R:1 pbc="T T T"
Si       1.43881655       1.84345785      -0.54995263       0.00000000
Si      -1.48423077       0.54429777       1.82177395       0.00000000
Si      -1.71100386      -0.59794074      -1.75807460       0.00000000
Si       1.48625466      -1.86427647       0.95270579       0.00000000
Si       0.52976709       1.75759326       2.78658021       0.00000000
Si       2.67146945      -1.59837480      -1.23912942       0.00000000
Si       1.63754966      -0.33462918       2.92274488       0.00000000
Si      -0.50098266      -3.16789675       1.09670826       0.00000000
Si      -2.00401209      -1.78849539       2.19616663       0.00000000
Si      -2.65813704       1.74014667      -1.44459679       0.00000000
