10
Lattice="16.28999089631971 0.0 0.0 0.0 16.28999089631971 0.0 0.0 0.0 34.376317263855086" Properties=species:S:1:pos:R:3:initial_magmoms:R:1 pbc="T T T"
Si      -2.00225277      -1.23145884       0.07143403       0.00000000
Si       0.93849363      -1.30007232      -1.73256736       0.00000000
Si       1.89574290      -0.94749156       1.09395816       0.00000000
Si      -0.27877077       2.22935166      -0.83960764       0.00000000
Si      -3.38170626       0.26287173       1.35504643       0.00000000
Si       3.11429681      -0.37978506      -1.95752610       0.00000000
Si       0.67567403      -3.56179221      -0.87993108       0.00000000
Si       0.95109395      -1.22645781       3.41009859       0.00000000
Si       3.78063926       0.17389575       0.25507242       0.00000000
Si      -2.53081440      -1.49866371      -2.49286879       0.00000000
