10
Lattice="16.28999089631971 0.0 0.0 0.0 16.28999089631971 0.0 0.0 0.0 34.376317263855086" Properties=species:S:1:pos:R:3:initial_magmoms:R:1 pbc="T T T"
Si       1.35664749       1.35738054      -1.35728089       0.00000000
Si      -1.35791811       1.35728280       1.35714339       0.00000000
Si      -1.35597960      -1.35840681      -1.35803717       0.00000000
Si       1.35813203      -1.35806472       1.35707464       0.00000000
Si       2.71206738      -0.00162900       2.71473367       0.00000000
Si      -0.00089595      -2.71419093      -2.71298047       0.00000000
Si      -0.00102627       2.71422351       2.71442428       0.00000000
Si       0.00029322       2.71397916      -2.71493993       0.00000000
Si      -2.71461447       2.71438641       0.00013751       0.00000000
Si      -2.71555929      -0.00057015       2.71418365       0.00000000
