10
Lattice="16.28999089631971 0.0 0.0 0.0 16.28999089631971 0.0 0.0 0.0 34.376317263855086" Properties=species:S:1:pos:R:3:initial_magmoms:R:1 pbc="T T T"
Si      -1.28347281      -1.23965271      -1.53947548       0.00000000
Si       1.30510593       1.37021706      -1.59578392       0.00000000
Si      -1.51580079       1.77117912       1.31345106       0.00000000
Si       1.98389461      -1.45743372       1.23132600       0.00000000
Si       3.14979272       0.64931940       1.23565741       0.00000000
Si       0.56723409       3.33029502       1.08443591       0.00000000
Si       2.54611301       2.54568717      -0.06191178       0.00000000
Si      -0.74244933      -0.30540492       3.74268926       0.00000000
Si      -3.17492100      -2.13995214      -0.34733850       0.00000000
Si       0.13792743      -2.51061480      -2.95908067       0.00000000
