10
Lattice="16.28999089631971 0.0 0.0 0.0 16.28999089631971 0.0 0.0 0.0 34.376317263855086" Properties=species:S:1:pos:R:3:initial_magmoms:R:1 pbc="T T T"
Si      -1.35166275      -1.35444834       1.37903080       0.00000000
Si       1.36192545       1.36210368       1.38202154       0.00000000
Si      -1.49120289       1.27066628      -1.39545238       0.00000000
Si       1.34342001      -1.30960197      -1.53820355       0.00000000
Si       2.70676269      -2.70638802      -0.00565834       0.00000000
Si       2.70895046       2.72007881       0.01802695       0.00000000
Si      -2.71722087       2.71366055       0.01633564       0.00000000
Si      -2.71997388      -2.71829601       0.00160194       0.00000000
Si      -2.71269225       0.00362069       2.74050561       0.00000000
Si       0.00399105      -2.71285515       2.74081499       0.00000000
