10
Lattice="16.28999089631971 0.0 0.0 0.0 16.28999089631971 0.0 0.0 0.0 34.376317263855086" Properties=species:S:1:pos:R:3:initial_magmoms:R:1 pbc="T T T"
Si       1.35724262       1.35800296      -1.35697151       0.00000000
Si      -1.35790182       1.35770516       1.35755590       0.00000000
Si       1.35785903      -1.35749457       1.35793404       0.00000000
Si      -1.35755973      -1.35889551      -1.35731527       0.00000000
Si       2.71292098      -0.00083079       2.71469929       0.00000000
Si      -0.00048870       2.71302687       2.71586809       0.00000000
Si      -2.71559187      -0.00206883       2.71366800       0.00000000
Si       2.71505497      -2.71507059       0.00027501       0.00000000
Si      -2.71479366      -2.71544526       0.00058440       0.00000000
Si       2.71499307       2.71529443       0.00037814       0.00000000
