10
Lattice="16.28999089631971 0.0 0.0 0.0 16.28999089631971 0.0 0.0 0.0 34.376317263855086" Properties=species:S:1:pos:R:3:initial_magmoms:R:1 pbc="T T T"
Si      -1.35689184      -1.35694071      -1.35728089       0.00000000
Si       1.35906449       1.35811359      -1.35693713       0.00000000
Si       1.36125756      -1.35562122       1.35989349       0.00000000
Si      -1.35879777       1.36086660       1.35886220       0.00000000
Si      -2.71358820       0.00016290      -2.71428678       0.00000000
Si      -2.71438641       2.71353933      -0.00120317       0.00000000
Si       0.00102627      -2.71422351      -2.71442428       0.00000000
Si       2.71412644       2.71477737      -0.00017188       0.00000000
Si       2.71309365      -2.71585251       0.00030939       0.00000000
Si      -2.71453302      -2.71479366      -0.00024063       0.00000000
