10
Lattice="16.28999089631971 0.0 0.0 0.0 16.28999089631971 0.0 0.0 0.0 34.376317263855086" Properties=species:S:1:pos:R:3:initial_magmoms:R:1 pbc="T T T"
Si      -1.46583936       1.25532369      -1.52995323       0.00000000
Si       2.08303488       1.55911590      -0.22901515       0.00000000
Si       1.51580079      -1.77117912      -1.31345106       0.00000000
Si      -1.84277367       0.47959389       1.91923087       0.00000000
Si       0.77335146      -2.07658404       2.42923819       0.00000000
Si      -1.06701129       3.39367194       0.77803962       0.00000000
Si       0.16931826       2.48707463      -2.84158235       0.00000000
Si      -2.60602533      -0.36875673      -2.83216323       0.00000000
Si       2.70989037       2.33235333       1.93129696       0.00000000
Si       2.82090672      -0.40096206      -2.90923498       0.00000000
