10
Lattice="16.28999089631971 0.0 0.0 0.0 16.28999089631971 0.0 0.0 0.0 34.376317263855086" Properties=species:S:1:pos:R:3:initial_magmoms:R:1 pbc="T T T"
Si      -1.36541151      -1.85321556       0.60175777       0.00000000
Si       1.13454963      -0.50953491       2.03291341       0.00000000
Si      -0.58526712       2.25662112      -0.56965027       0.00000000
Si       0.93804336      -0.76836672      -2.08468417       0.00000000
Si       2.77358427      -1.67501925       0.86961818       0.00000000
Si      -2.96126136      -0.12520494      -1.89410176       0.00000000
Si      -2.16546228      -2.34414729      -1.51572143       0.00000000
Si      -1.67808177       1.78781121      -2.59469150       0.00000000
Si       3.14229213      -1.22758182      -1.40413584       0.00000000
Si       1.16950797       1.46421036       3.25165767       0.00000000
