10
Lattice="16.28999089631971 0.0 0.0 0.0 16.28999089631971 0.0 0.0 0.0 34.376317263855086" Properties=species:S:1:pos:R:3:initial_magmoms:R:1 pbc="T T T"
Si      -1.15199622       1.39701411      -1.52080913       0.00000000
Si       1.62245142      -1.27775502      -1.19791220       0.00000000
Si       0.89989218       0.74262852       2.09180007       0.00000000
Si      -1.59200541      -1.96292871       0.20642990       0.00000000
Si      -0.37408356      -0.63957798       3.49392288       0.00000000
Si       2.18274597       2.94906015      -0.52764239       0.00000000
Si       0.46693656      -2.27628315      -2.97142177       0.00000000
Si      -1.10491812      -2.72222190       2.37445198       0.00000000
Si       0.31894191       3.22442631      -2.00266223       0.00000000
Si       3.16161207       0.13178610      -2.24666547       0.00000000
