10
Lattice="16.28999089631971 0.0 0.0 0.0 16.28999089631971 0.0 0.0 0.0 34.376317263855086" Properties=species:S:1:pos:R:3:initial_magmoms:R:1 pbc="T T T"
Si      -1.88489635      -1.12138731       0.83888574       0.00000000
Si       2.15935353      -0.81111168       0.44933309       0.00000000
Si      -0.66634245      -0.55368081      -2.21259852       0.00000000
Si      -0.32320989       2.30368293       0.65531610       0.00000000
Si       2.13079716      -0.95855247       2.83522273       0.00000000
Si      -1.16406711      -3.50252919       0.35720451       0.00000000
Si      -0.98015301       1.62474831      -3.21920641       0.00000000
Si      -2.84214562      -1.47396807      -1.98763977       0.00000000
Si      -3.78063926      -0.17389575      -0.25507242       0.00000000
Si      -1.88552840       2.97527076      -1.49024856       0.00000000
