10
Lattice="16.28999089631971 0.0 0.0 0.0 16.28999089631971 0.0 0.0 0.0 34.376317263855086" Properties=species:S:1:pos:R:3:initial_magmoms:R:1 pbc="T T T"
Si      -1.97607378       0.02029734      -1.20571563       0.00000000
Si       1.10163569      -1.77018543      -1.04290930       0.00000000
Si       0.17409938      -0.88803306       2.17079690       0.00000000
Si       0.55306993       2.32518573       0.08525331       0.00000000
Si       2.18166269       0.17589942       2.79132415       0.00000000
Si      -0.78367932      -3.32079795      -0.97865992       0.00000000
Si      -3.61510842       1.18578168      -0.04242040       0.00000000
Si      -2.85573378      -2.17844541      -1.37092830       0.00000000
Si       2.86709701       2.57543271      -0.15737487       0.00000000
Si      -1.60736592       0.46773477      -3.47946965       0.00000000
