10
Lattice="16.28999089631971 0.0 0.0 0.0 16.28999089631971 0.0 0.0 0.0 34.376317263855086" Properties=species:S:1:pos:R:3:initial_magmoms:R:1 pbc="T T T"
Si       2.15985852       0.89995734       0.57573488       0.00000000
Si       0.32320989      -2.30368293      -0.65531610       0.00000000
Si      -1.01703357       0.14144607       2.24020272       0.00000000
Si      -1.56231851       0.67158783      -2.14556466       0.00000000
Si       2.45415366       2.32557669      -1.32867978       0.00000000
Si      -1.56168646      -3.42507024       0.18356964       0.00000000
Si       1.85543100       2.44828926       2.26220357       0.00000000
Si       0.50898105       3.74169897       0.73665051       0.00000000
Si       0.79720002       0.94768704       3.68465310       0.00000000
Si      -0.65694312      -0.67893462      -3.87452251       0.00000000
