10
Lattice="16.28999089631971 0.0 0.0 0.0 16.28999089631971 0.0 0.0 0.0 34.376317263855086" Properties=species:S:1:pos:R:3:initial_magmoms:R:1 pbc="T T T"
Si       0.01391166      -2.21649885      -0.72664700       0.00000000
Si      -0.33148032      -0.12372255       2.36423254       0.00000000
Si      -1.85063589       1.14117966      -1.07986386       0.00000000
Si       2.21481772       0.79459362      -0.80842830       0.00000000
Si      -0.99731127       3.19493231      -1.81139230       0.00000000
Si       0.55204855       1.86681024       3.31793524       0.00000000
Si       0.10506724      -2.31303339      -3.08895447       0.00000000
Si       2.11165315      -3.23092602      -0.23039021       0.00000000
Si       0.38274658       3.89181851       0.05345520       0.00000000
Si       2.55290038       3.03335180      -0.23111211       0.00000000
