10
Lattice="16.28999089631971 0.0 0.0 0.0 16.28999089631971 0.0 0.0 0.0 34.376317263855086" Properties=species:S:1:pos:R:3:initial_magmoms:R:1 pbc="T T T"
Si       0.90899014      -1.74579930       1.29911613       0.00000000
Si       0.88352888       1.99053279       0.95370270       0.00000000
Si       0.33148032       0.12372255      -2.36423254       0.00000000
Si      -1.83156519       0.69509430       1.40176387       0.00000000
Si      -0.14706449       1.37626065       2.97699074       0.00000000
Si      -2.45822520       2.44601910       0.02506035       0.00000000
Si       0.30458879      -0.89868672       3.45533746       0.00000000
Si       3.22301722      -1.49555232       1.05648795       0.00000000
Si       0.34539198      -2.09277630      -3.09087954       0.00000000
Si      -0.47098788       3.74963939      -0.11894212       0.00000000
