10
Lattice="10.86 0.0 0.0 0.0 10.86 0.0 0.0 0.0 10.86" Properties=species:S:1:pos:R:3:initial_magmoms:R:1 pbc="T T T"
Si      -1.18220874      -1.23613950       1.15024776       0.00000000
Si       1.42482114       1.45694502       1.19696748       0.00000000
Si       1.42482114      -1.25805498      -1.51803252       0.00000000
Si      -1.29017886       1.45694502      -1.51803252       0.00000000
Si      -2.53498464       0.17899452       2.47804566       0.00000000
Si       2.91907026       0.31229016       2.38396548       0.00000000
Si       0.06732114       2.81444502       2.55446748       0.00000000
Si      -2.64767886       2.81444502      -0.16053252       0.00000000
Si       0.06732114      -2.61555498      -2.87553252       0.00000000
Si      -2.64984000      -2.83782660      -0.24518622       0.00000000
