10
Lattice="10.86 0.0 0.0 0.0 10.86 0.0 0.0 0.0 10.86" Properties=species:S:1:pos:R:3:initial_magmoms:R:1 pbc="T T T"
Si       1.35750000      -1.35750000      -1.35750000       0.00000000
Si       1.35750000       1.35750000       1.35750000       0.00000000
Si      -1.35750000       1.35750000      -1.35750000       0.00000000
Si      -1.35750000      -1.35750000       1.35750000       0.00000000
Si      -0.15491790       2.44619328       2.80571358       0.00000000
Si       0.14046324       2.70019782      -2.64746166       0.00000000
Si       0.23234970      -2.70813648       2.67331932       0.00000000
Si      -0.14094108      -2.66074344      -2.76440214       0.00000000
Si      -2.71500000       2.71500000       0.00000000       0.00000000
Si       2.71500000      -2.71500000       0.00000000       0.00000000
