10
Lattice="10.86 0.0 0.0 0.0 10.86 0.0 0.0 0.0 10.86" Properties=species:S:1:pos:R:3:initial_magmoms:R:1 pbc="T T T"
Si      -1.11891666       1.45542462      -1.21542948       0.00000000
Si      -1.11891666      -1.25957538       1.49957052       0.00000000
Si       1.76214360      -1.31632974      -0.87644544       0.00000000
Si       1.59608334       1.45542462       1.49957052       0.00000000
Si       0.18784542      -2.46247242      -2.57289690       0.00000000
Si      -2.47641666       0.09792462      -2.57292948       0.00000000
Si      -2.47641666      -2.61707538       0.14207052       0.00000000
Si      -0.03572940      -2.68868622       2.49372750       0.00000000
Si       2.79866544      -0.17088210      -2.48221590       0.00000000
Si      -2.47641666       2.81292462       0.14207052       0.00000000
