10
Lattice="10.86 0.0 0.0 0.0 10.86 0.0 0.0 0.0 10.86" Properties=species:S:1:pos:R:3:initial_magmoms:R:1 pbc="T T T"
Si       1.36585134       1.10539596       1.44994032       0.00000000
Si       1.36585134      -1.60960404      -1.26505968       0.00000000
Si      -1.34914866      -1.60960404       1.44994032       0.00000000
Si      -2.56618542       2.44809378       0.15997866       0.00000000
Si       2.72335134       2.46289596       0.09244032       0.00000000
Si       0.00835134       2.46289596       2.80744032       0.00000000
Si       2.72335134      -0.25210404      -2.62255968       0.00000000
Si      -0.17302152      -2.97699750      -2.52266940       0.00000000
Si      -2.70664866      -0.25210404       2.80744032       0.00000000
Si       2.72335134      -0.25210404       2.80744032       0.00000000
