10
Lattice="16.28999089631971 0.0 0.0 0.0 16.28999089631971 0.0 0.0 0.0 34.24959146834617" Properties=species:S:1:pos:R:3:initial_magmoms:R:1 pbc="T T T"
Si      -1.00745505       1.94036706      -0.84089644       0.00000000
Si      -1.77038091      -1.55155734       0.14802682       0.00000000
Si       1.51583337      -0.41011704      -1.78375397       0.00000000
Si       0.95892714      -0.11948715       2.24208226       0.00000000
Si      -0.41039397      -3.45940956      -0.37989668       0.00000000
Si       2.83843476      -2.03651064      -0.64115271       0.00000000
Si       2.34551565       1.88669151      -2.13929918       0.00000000
Si      -2.50125945      -1.32914997       2.57752295       0.00000000
Si       0.69053310      -2.58499494       2.81422200       0.00000000
Si       0.29879118       2.98260682      -2.48282277       0.00000000
