10
Lattice="16.28999089631971 0.0 0.0 0.0 16.28999089631971 0.0 0.0 0.0 34.24959146834617" Properties=species:S:1:pos:R:3:initial_magmoms:R:1 pbc="T T T"
Si      -1.35633798      -1.35776885       1.35649008       0.00000000
Si       1.35847197       1.35727309       1.35666133       0.00000000
Si      -1.35606105       1.35632827      -1.36149052       0.00000000
Si       1.35883035      -1.35890915      -1.36607997       0.00000000
Si      -2.69808012      -0.00307616      -2.71867929       0.00000000
Si      -2.71342530      -0.00097053       2.71373365       0.00000000
Si      -2.71292031       2.71508043       0.00010275       0.00000000
Si       0.00151497       2.71410303       2.71400764       0.00000000
Si       0.00127062      -2.71477472       2.71438439       0.00000000
Si       2.71591767      -0.00046491       2.71414464       0.00000000
