10
Lattice="16.28999089631971 0.0 0.0 0.0 16.28999089631971 0.0 0.0 0.0 34.24959146834617" Properties=species:S:1:pos:R:3:initial_magmoms:R:1 pbc="T T T"
Si       1.12700736      -1.51288702      -1.36303175       0.00000000
Si      -1.48618231      -1.35171376       1.19126996       0.00000000
Si      -1.60217037       1.22752985      -1.34775643       0.00000000
Si       1.70935857       0.89472353       1.52811488       0.00000000
Si       2.54459574       2.62968346       0.08572678       0.00000000
Si       2.46677841      -0.14115966      -2.73037896       0.00000000
Si      -1.20417309       1.94833792       2.89662657       0.00000000
Si      -2.68266001       0.01515442       2.62663689       0.00000000
Si      -0.25387965       2.57765320      -2.72623475       0.00000000
Si       3.33914049      -1.01169259       1.45988965       0.00000000
