10
Lattice="16.28999089631971 0.0 0.0 0.0 16.28999089631971 0.0 0.0 0.0 34.24959146834617" Properties=species:S:1:pos:R:3:initial_magmoms:R:1 pbc="T T T"
Si      -0.36641097      -2.20513562       0.87994100       0.00000000
Si      -1.49874516       1.42592886       1.34398897       0.00000000
Si      -0.08666280      -0.79160603      -2.44757992       0.00000000
Si       2.33349363       0.37040202       1.09958375       0.00000000
Si      -3.00019446       0.26200836      -1.07906823       0.00000000
Si      -1.13448447       3.32666235       0.08863799       0.00000000
Si       1.26961002       3.32263872      -0.36544335       0.00000000
Si       1.76052546      -3.08969891       1.43214747       0.00000000
Si       2.31788781      -1.15579668       2.86525392       0.00000000
Si      -3.67548175       0.46411839       1.21212797       0.00000000
