10
Lattice="16.28999089631971 0.0 0.0 0.0 16.28999089631971 0.0 0.0 0.0 34.24959146834617" Properties=species:S:1:pos:R:3:initial_magmoms:R:1 pbc="T T T"
Si      -0.01560582      -1.52619870       1.76567018       0.00000000
Si       0.37615239       2.28025791       0.40157668       0.00000000
Si       2.07565551      -0.67206024      -1.10646792       0.00000000
Si      -2.33349363      -0.37040202      -1.09958375       0.00000000
Si      -1.06388361       2.95223670      -1.46502709       0.00000000
Si      -0.57296817      -3.46010093       0.33256372       0.00000000
Si       3.65602986       0.49223493       0.18741387       0.00000000
Si      -2.69990460      -2.57553764      -0.21964275       0.00000000
Si       2.74392018       2.61969264       0.16909033       0.00000000
Si      -0.00977400       1.68937074      -3.51548278       0.00000000
