10
Lattice="16.28999089631971 0.0 0.0 0.0 16.28999089631971 0.0 0.0 0.0 34.24959146834617" Properties=species:S:1:pos:R:3:initial_magmoms:R:1 pbc="T T T"
Si      -1.35650088       1.35741312       1.35857930       0.00000000
Si      -1.35808101      -1.35684297      -1.35782581       0.00000000
Si       1.35742941       1.35791811      -1.35772306       0.00000000
Si       1.35824391      -1.35659862       1.36149052       0.00000000
Si      -2.71422677      -2.71412577      -0.00123299       0.00000000
Si      -2.71434243      -0.00014661      -2.71506938       0.00000000
Si       0.00052128       2.71489140      -2.71476114       0.00000000
Si       2.71516833      -2.71534752      -0.00010275       0.00000000
Si       2.71531494       0.00022806      -2.71541188       0.00000000
Si      -2.71559187       2.71524978      -0.00020550       0.00000000
