10
Lattice="16.28999089631971 0.0 0.0 0.0 16.28999089631971 0.0 0.0 0.0 34.24959146834617" Properties=species:S:1:pos:R:3:initial_magmoms:R:1 pbc="T T T"
Si      -2.13633576      -0.14292846      -0.89826454       0.00000000
Si       1.81897398       0.51772878      -1.44434033       0.00000000
Si       0.03964986       1.63603728       1.76405843       0.00000000
Si       1.08149310      -2.33595342       0.42558566       0.00000000
Si       2.72448621      -1.14663681       1.70948167       0.00000000
Si       1.21704219       0.07266969       3.21243679       0.00000000
Si      -2.96083782      -1.28603034       1.67011860       0.00000000
Si       0.68675382       3.59012052       0.20131921       0.00000000
Si       1.76046030      -1.42798140      -2.96670127       0.00000000
Si       1.12728429       2.89417914      -2.08052685       0.00000000
