10
Lattice="16.28999089631971 0.0 0.0 0.0 16.28999089631971 0.0 0.0 0.0 34.24959146834617" Properties=species:S:1:pos:R:3:initial_magmoms:R:1 pbc="T T T"
Si       1.35633798       1.35776885      -1.35649008       0.00000000
Si      -1.35708732       1.35679832       1.35724357       0.00000000
Si       1.35760860      -1.35700587       1.35789431       0.00000000
Si      -1.35716877      -1.35905841      -1.35772306       0.00000000
Si       0.00096111      -2.71401174      -2.71431589       0.00000000
Si       0.00003258       2.71404499       2.71496663       0.00000000
Si       2.71480995       2.71504194       0.00017125       0.00000000
Si       0.00074934      -2.71536381       2.71452139       0.00000000
Si       2.71466334      -2.71524978      -0.00017125       0.00000000
Si      -2.71518788       2.71486112       0.00000000       0.00000000
