10
Lattice="16.28999089631971 0.0 0.0 0.0 16.28999089631971 0.0 0.0 0.0 34.24959146834617" Properties=species:S:1:pos:R:3:initial_magmoms:R:1 pbc="T T T"
Si      -1.35593073       1.35260290       1.35696957       0.00000000
Si       1.35651717       1.35538172      -1.35672983       0.00000000
Si      -1.35812988      -1.35892809      -1.35649008       0.00000000
Si       1.35500220      -1.35711990       1.36303175       0.00000000
Si      -2.69570178      -0.01912446       2.72431678       0.00000000
Si      -0.00092853       2.71311972      -2.71421314       0.00000000
Si      -2.71570590       2.71212277       0.00058224       0.00000000
Si       2.71396287       2.71408572      -0.00034250       0.00000000
Si       2.71417464      -0.00179190      -2.71493238       0.00000000
Si      -2.71573848      -0.00192222      -2.71438439       0.00000000
