10
Lattice="16.28999089631971 0.0 0.0 0.0 16.28999089631971 0.0 0.0 0.0 34.24959146834617" Properties=species:S:1:pos:R:3:initial_magmoms:R:1 pbc="T T T"
Si       0.37217763       2.03535405       1.02310437       0.00000000
Si      -0.97694388      -1.75146822       1.17894010       0.00000000
Si       2.13117183      -0.58394763      -0.78849454       0.00000000
Si      -1.85608260       0.67201137      -2.12186613       0.00000000
Si      -1.04537817       2.55386475      -0.89864128       0.00000000
Si       0.90238455      -1.96511157      -2.32222635       0.00000000
Si      -0.35451927      -3.27536514      -0.80188613       0.00000000
Si       3.20004018      -0.90389952       1.44588156       0.00000000
Si      -3.43370394      -0.74609829      -0.92751370       0.00000000
Si      -0.55610802      -0.64223325      -3.70615036       0.00000000
