10
Lattice="16.28999089631971 0.0 0.0 0.0 16.28999089631971 0.0 0.0 0.0 34.24959146834617" Properties=species:S:1:pos:R:3:initial_magmoms:R:1 pbc="T T T"
Si       2.12693643      -0.88456329       0.55220647       0.00000000
Si      -1.10545569       0.05276331       2.11207074       0.00000000
Si       0.36641097       2.20513562      -0.87994100       0.00000000
Si      -1.98975834      -1.77762996      -0.34465383       0.00000000
Si       0.70907112       1.11280315       3.24073241       0.00000000
Si       2.68429878       1.04933894       1.98531293       0.00000000
Si       0.27974817       1.41352958      -3.32752092       0.00000000
Si       1.62280980      -2.80652265       1.83324466       0.00000000
Si       2.69990460       2.57553764       0.21964275       0.00000000
Si       3.32708589      -1.01139723      -1.47400049       0.00000000
