10
Lattice="16.28999089631971 0.0 0.0 0.0 16.28999089631971 0.0 0.0 0.0 34.24959146834617" Properties=species:S:1:pos:R:3:initial_magmoms:R:1 pbc="T T T"
Si      -1.35368271       1.35709285      -1.36440174       0.00000000
Si       1.36169739      -1.35938749      -1.36344275       0.00000000
Si      -1.36265850      -1.34788675       1.38505425       0.00000000
Si       1.35114147       1.36771719       1.38241703       0.00000000
Si      -2.70853830       2.70865623      -0.00458945       0.00000000
Si      -2.71264338      -2.71411276      -0.00102749       0.00000000
Si      -2.71112841      -0.00161115      -2.72078907       0.00000000
Si       0.00381186       2.71391790      -2.72068632       0.00000000
Si       2.71590138       2.71953795      -0.00373321       0.00000000
Si       2.71938744      -2.71662142      -0.00222622       0.00000000
