10
Lattice="16.28999089631971 0.0 0.0 0.0 16.28999089631971 0.0 0.0 0.0 34.24959146834617" Properties=species:S:1:pos:R:3:initial_magmoms:R:1 pbc="T T T"
Si       1.88721279       0.86714928      -1.27223604       0.00000000
Si       0.19114686      -0.39724794       2.40079495       0.00000000
Si      -0.92584215      -1.85526631      -1.37200515       0.00000000
Si      -1.89428265       1.96418304      -0.00821991       0.00000000
Si       0.53709759       2.14957953      -2.91498436       0.00000000
Si      -2.18978325      -0.56010884      -2.92628673       0.00000000
Si      -3.46942791       0.84776418      -1.48228890       0.00000000
Si      -2.67488316      -2.79361187      -0.10812602       0.00000000
Si       0.87545718      -2.64656204       2.70729472       0.00000000
Si      -0.81774171       3.52085544      -1.52818338       0.00000000
