10
Lattice="16.28999089631971 0.0 0.0 0.0 16.28999089631971 0.0 0.0 0.0 34.24959146834617" Properties=species:S:1:pos:R:3:initial_magmoms:R:1 pbc="T T T"
Si      -1.88721279      -0.86714928       1.27223604       0.00000000
Si      -1.35011520       1.28243025      -1.64274832       0.00000000
Si       1.31978322       1.38305358       1.63839862       0.00000000
Si       1.34025975      -1.41812106      -1.63665189       0.00000000
Si       2.59802694       2.65746915      -0.05096342       0.00000000
Si      -2.70495450       2.65370616      -0.25594734       0.00000000
Si      -2.81305494      -2.72241559      -0.09976912       0.00000000
Si       2.81725776      -2.72125851      -0.34855829       0.00000000
Si      -0.00594585       2.64109770      -3.02591885       0.00000000
Si       2.70501966      -0.06630030      -3.02280213       0.00000000
