10
Lattice="16.28999089631971 0.0 0.0 0.0 16.28999089631971 0.0 0.0 0.0 34.24959146834617" Properties=species:S:1:pos:R:3:initial_magmoms:R:1 pbc="T T T"
Si       1.33419987       1.35881406      -1.36462779       0.00000000
Si      -1.33799544      -1.33978734      -1.38438981       0.00000000
Si      -1.35428544       1.35721764       1.35556534       0.00000000
Si       1.35873261      -1.35467640       1.35556534       0.00000000
Si      -2.51538777       0.22358025      -2.83276817       0.00000000
Si      -2.71342530       0.00003258       2.71243216       0.00000000
Si       0.00122175       2.71469592       2.71253491       0.00000000
Si       0.00097740      -2.71446786       2.71280891       0.00000000
Si      -2.71295289       2.71451673      -0.00476070       0.00000000
Si       2.71621089      -0.00011403       2.71304865       0.00000000
