10
Lattice="16.28999089631971 0.0 0.0 0.0 16.28999089631971 0.0 0.0 0.0 34.24959146834617" Properties=species:S:1:pos:R:3:initial_magmoms:R:1 pbc="T T T"
Si       1.35672894      -1.35663120      -1.35727782       0.00000000
Si      -1.35782037      -1.35770634       1.35765456       0.00000000
Si      -1.35767376       1.35786924      -1.35765456       0.00000000
Si       1.35863487       1.35746199       1.35714082       0.00000000
Si       2.71433754      -2.71420722       0.00034250       0.00000000
Si       2.71448415       0.00316026      -2.71452139       0.00000000
Si      -2.71515204       0.00257382      -2.71400764       0.00000000
Si       0.00169416      -2.71456560      -2.71482963       0.00000000
Si       0.00146610       2.71505430      -2.71452139       0.00000000
Si       2.71546155      -0.00118917       2.71417889       0.00000000
