10
Lattice="16.28999089631971 0.0 0.0 0.0 16.28999089631971 0.0 0.0 0.0 34.24959146834617" Properties=species:S:1:pos:R:3:initial_magmoms:R:1 pbc="T T T"
Si      -1.24696692      -1.11658176       1.84920498       0.00000000
Si      -0.83683359       2.21824188       0.85552102       0.00000000
Si      -1.45906272       0.78133356      -1.90201788       0.00000000
Si       1.10061756      -1.76088384      -1.46098564       0.00000000
Si       2.27696733       0.89261055       1.20137359       0.00000000
Si      -2.75770152       2.17515483      -0.58505185       0.00000000
Si       1.75531266      -3.06589203       0.78411059       0.00000000
Si      -0.27914544      -0.08364915       3.71817198       0.00000000
Si      -0.33485724      -3.24403947       1.86752852       0.00000000
Si       2.00225277      -0.23372892       3.17915161       0.00000000
