10
Lattice="16.28999089631971 0.0 0.0 0.0 16.28999089631971 0.0 0.0 0.0 34.24959146834617" Properties=species:S:1:pos:R:3:initial_magmoms:R:1 pbc="T T T"
Si       1.34319195       1.34573319       1.40075427       0.00000000
Si      -1.36974465      -1.36974465       1.40054878       0.00000000
Si      -1.40882436       1.39387014      -1.52739221       0.00000000
Si       1.39196421      -1.41390684      -1.53775957       0.00000000
Si      -0.52507557      -1.90659789      -2.99019791       0.00000000
Si      -2.48070636      -0.26383284      -2.87453698       0.00000000
Si       2.70099603       2.68364718       0.00428120       0.00000000
Si       2.67740811      -2.72544732       0.04068169       0.00000000
Si      -2.73913092       2.68977222       0.01948460       0.00000000
Si       2.70200601      -0.01058850       2.76108031       0.00000000
