10
Lattice="16.28999089631971 0.0 0.0 0.0 16.28999089631971 0.0 0.0 0.0 34.24959146834617" Properties=species:S:1:pos:R:3:initial_magmoms:R:1 pbc="T T T"
Si       0.19746738       0.04385268       2.35010553       0.00000000
Si       1.47722607       1.43151633      -1.17013795       0.00000000
Si       0.83448783      -2.12965686      -0.61371877       0.00000000
Si      -2.13242616       0.80620839      -0.81921644       0.00000000
Si       0.39454380       0.94936491      -3.22059363       0.00000000
Si      -0.02303406       2.42199720       2.65972201       0.00000000
Si      -1.55354472       2.13004782      -2.68331999       0.00000000
Si       3.62002896       0.47918664      -1.32278846       0.00000000
Si       2.97733959      -1.78834878      -1.88427658       0.00000000
Si      -3.11930694       2.38759272       0.58282562       0.00000000
