10
Lattice="16.28999089631971 0.0 0.0 0.0 16.28999089631971 0.0 0.0 0.0 34.24959146834617" Properties=species:S:1:pos:R:3:initial_magmoms:R:1 pbc="T T T"
Si      -0.19746738      -0.04385268      -2.35010553       0.00000000
Si       2.10502638       0.00702099       1.10184422       0.00000000
Si      -0.22050144       2.37814452       0.30961648       0.00000000
Si      -1.64035413      -1.54500876       1.11790729       0.00000000
Si       0.63702045      -2.17350954      -2.96382430       0.00000000
Si       2.91644757      -2.26880604       0.57624970       0.00000000
Si       1.81605807       3.30212961      -0.30163632       0.00000000
Si       3.51595215       1.70253306       0.12343560       0.00000000
Si      -3.74772627      -1.36347300      -0.07873985       0.00000000
Si       1.27975869       1.38766365      -3.52024348       0.00000000
