10
Lattice="16.28999089631971 0.0 0.0 0.0 16.28999089631971 0.0 0.0 0.0 34.24959146834617" Properties=species:S:1:pos:R:3:initial_magmoms:R:1 pbc="T T T"
Si      -1.35542135       1.35844463      -1.35679832       0.00000000
Si      -1.35630101      -1.35783372       1.35690107       0.00000000
Si       1.35878980       1.35712514       1.35659283       0.00000000
Si       1.35874093      -1.35723099      -1.36231251       0.00000000
Si      -2.71172675       2.71495039       0.00017125       0.00000000
Si      -2.71317656      -0.00058498       2.71400764       0.00000000
Si      -2.71224803      -2.71594731       0.00078774       0.00000000
Si       0.00179194       2.71459201       2.71393914       0.00000000
Si       0.00181282      -2.71534458       2.71390490       0.00000000
Si       0.00413666       2.70392206      -2.72654985       0.00000000
