10
Lattice="16.28999089631971 0.0 0.0 0.0 16.28999089631971 0.0 0.0 0.0 34.24959146834617" Properties=species:S:1:pos:R:3:initial_magmoms:R:1 pbc="T T T"
Si       1.35040842       1.34604270       1.38113610       0.00000000
Si      -1.36664140      -1.36523232       1.37935512       0.00000000
Si      -1.32081275       1.35474156      -1.44723442       0.00000000
Si       1.26089487      -1.34646624      -1.54355118       0.00000000
Si      -2.02892276      -0.62762112      -2.76092417       0.00000000
Si      -0.34254612      -2.51322120      -2.84065726       0.00000000
Si       2.68662825      -2.70342324       0.00035962       0.00000000
Si       2.71164969       2.69342118       0.01117222       0.00000000
Si      -2.72667626       2.70945054      -0.00760341       0.00000000
Si       2.70586674      -0.00324171       2.73923591       0.00000000
