10
Lattice="16.28999089631971 0.0 0.0 0.0 16.28999089631971 0.0 0.0 0.0 34.24959146834617" Properties=species:S:1:pos:R:3:initial_magmoms:R:1 pbc="T T T"
Si       1.42066719      -0.47206791       1.78183599       0.00000000
Si      -0.12206097       2.36362428      -0.02914642       0.00000000
Si       1.05951789      -0.37183554      -2.09337045       0.00000000
Si      -2.16604872      -1.09867905       0.27389414       0.00000000
Si      -1.87045038       2.17263218      -1.71597399       0.00000000
Si      -3.29126418       0.70568280       1.22182061       0.00000000
Si      -0.28759995      -0.58244895       3.52407943       0.00000000
Si       0.59043105      -2.64028320      -2.49001519       0.00000000
Si       2.11629906      -2.69307909       1.35289387       0.00000000
Si      -1.89242559       1.10190447       3.06023696       0.00000000
