10
Lattice="16.28999089631971 0.0 0.0 0.0 16.28999089631971 0.0 0.0 0.0 34.24959146834617" Properties=species:S:1:pos:R:3:initial_magmoms:R:1 pbc="T T T"
Si      -1.06209171       1.89968997      -0.93583636       0.00000000
Si       2.33515521      -0.18024885      -0.67026488       0.00000000
Si      -0.12701313       0.17736552       2.50960597       0.00000000
Si      -0.20768121      -2.25158751      -1.13311412       0.00000000
Si       1.72195074      -1.49674149       2.69804733       0.00000000
Si       3.06522414      -2.11338315       0.62440465       0.00000000
Si       0.50828058       3.72383603      -1.00221211       0.00000000
Si      -2.24424072      -3.17557260      -0.52186132       0.00000000
Si      -0.52137774      -1.94554728      -3.46588935       0.00000000
Si      -2.95402860       2.83148612       0.69427386       0.00000000
