10
Lattice="16.28999089631971 0.0 0.0 0.0 16.28999089631971 0.0 0.0 0.0 34.24959146834617" Properties=species:S:1:pos:R:3:initial_magmoms:R:1 pbc="T T T"
Si      -1.35614576      -1.35728280       1.35659283       0.00000000
Si      -1.35626142       1.35669636      -1.35724357       0.00000000
Si       1.35808101       1.35684297       1.35782581       0.00000000
Si       1.35874890      -1.35837423      -1.35803131       0.00000000
Si      -2.71400760       2.71440270       0.00006850       0.00000000
Si       0.00162900      -2.71498914      -2.71373365       0.00000000
Si      -2.71397441      -2.71551042       0.00000000       0.00000000
Si       0.00216657       2.71507059      -2.71455564       0.00000000
Si       2.71591767       0.00177561      -2.71393914       0.00000000
Si      -2.71352349       0.00148239       2.71643937       0.00000000
