10
Lattice="16.28999089631971 0.0 0.0 0.0 16.28999089631971 0.0 0.0 0.0 34.24959146834617" Properties=species:S:1:pos:R:3:initial_magmoms:R:1 pbc="T T T"
Si       1.35705474       1.35123224       1.37947499       0.00000000
Si      -1.35720135      -1.36467144       1.37378956       0.00000000
Si       1.37093382      -1.39816368      -1.35110604       0.00000000
Si      -1.31152419       1.24751381      -1.59647367       0.00000000
Si      -1.96560027      -0.75224889      -3.07398274       0.00000000
Si       0.37111878       2.45609008      -2.79930086       0.00000000
Si      -0.11663640      -2.42635590      -2.88554138       0.00000000
Si      -2.70707220       2.70229714      -0.01948118       0.00000000
Si       2.71661275       2.69670967       0.00972346       0.00000000
Si       0.00074934       2.70773800       2.73644456       0.00000000
