10
Lattice="16.28999089631971 0.0 0.0 0.0 16.28999089631971 0.0 0.0 0.0 34.24959146834617" Properties=species:S:1:pos:R:3:initial_magmoms:R:1 pbc="T T T"
Si       2.25624645       0.54874494      -0.42061947       0.00000000
Si      -0.65816487       2.26916442       0.11131123       0.00000000
Si      -0.90510498      -0.56299869      -2.28372979       0.00000000
Si      -0.92457153      -2.27889118       1.82903196       0.00000000
Si       0.27624582       1.18131822       2.81483850       0.00000000
Si       0.88181028      -1.09416672       2.87299434       0.00000000
Si      -2.99527488      -0.74114613      -1.20031185       0.00000000
Si      -3.04085430      -1.25734365       1.21726541       0.00000000
Si       2.02520538       2.57355936      -1.60144329       0.00000000
Si      -0.17016534      -3.67377686       0.02866692       0.00000000
