10
Lattice="16.28999089631971 0.0 0.0 0.0 16.28999089631971 0.0 0.0 0.0 34.24959146834617" Properties=species:S:1:pos:R:3:initial_magmoms:R:1 pbc="T T T"
Si       0.54213120      -0.56115792       2.21845003       0.00000000
Si      -0.60556446       2.27548494      -0.05815584       0.00000000
Si      -1.80638181      -1.18472446      -1.04396238       0.00000000
Si       2.33013530      -0.26557587      -0.61584225       0.00000000
Si      -0.88181028       1.09416672      -2.87299434       0.00000000
Si       0.63372987       3.01374774       1.83499139       0.00000000
Si       2.73742277       1.88164161      -1.41855037       0.00000000
Si      -2.43713061      -2.70388655       0.80996904       0.00000000
Si       1.64774979       1.29994200       3.10544644       0.00000000
Si      -1.30844538      -0.19432341       3.59795584       0.00000000
