10
Lattice="16.28999089631971 0.0 0.0 0.0 16.28999089631971 0.0 0.0 0.0 34.24959146834617" Properties=species:S:1:pos:R:3:initial_magmoms:R:1 pbc="T T T"
Si      -1.48120083       1.69406389      -0.71917332       0.00000000
Si       1.24634043      -0.97983277      -1.84173856       0.00000000
Si       2.29824437       0.50021703       0.67242261       0.00000000
Si      -1.34710155      -1.67386822       1.17811811       0.00000000
Si      -0.65664990      -2.23825156      -1.12869592       0.00000000
Si       0.32684256       3.13898689      -1.17643987       0.00000000
Si       1.94200976       2.78583598       0.43942250       0.00000000
Si       3.42133073      -0.72671875      -0.95011845       0.00000000
Si      -3.17397618       2.23021666       0.84617088       0.00000000
Si      -2.09999277       1.56835396      -2.98906627       0.00000000
