10
Lattice="16.28999089631971 0.0 0.0 0.0 16.28999089631971 0.0 0.0 0.0 34.24959146834617" Properties=species:S:1:pos:R:3:initial_magmoms:R:1 pbc="T T T"
Si      -1.68264297      -1.20857628       1.20282718       0.00000000
Si       1.08229131       1.63807353       1.40021796       0.00000000
Si      -0.24288390       1.27296576      -2.07963636       0.00000000
Si       2.16556002       1.82397501      -2.29297718       0.00000000
Si       2.34549397       0.24061959       2.80902432       0.00000000
Si      -0.37111878      -2.45609008       2.79930086       0.00000000
Si       3.03825183       2.34419616       0.03541410       0.00000000
Si      -1.15647597       3.41475867      -1.40608351       0.00000000
Si      -2.33671905      -3.20833898      -0.27468188       0.00000000
Si       2.78257213      -2.93313572       0.17378941       0.00000000
