10
Lattice="16.28999089631971 0.0 0.0 0.0 16.28999089631971 0.0 0.0 0.0 34.24959146834617" Properties=species:S:1:pos:R:3:initial_magmoms:R:1 pbc="T T T"
Si       1.26320266      -1.39745394       1.40880636       0.00000000
Si      -1.08229131      -1.63807353      -1.40021796       0.00000000
Si      -1.45816677       1.33877736       1.39669227       0.00000000
Si       1.95596052       0.70612263      -1.36480387       0.00000000
Si      -1.32517521      -0.36510777      -3.47985432       0.00000000
Si       2.66407053       2.68848531      -0.05111412       0.00000000
Si       2.61824187      -0.03148857       2.77547542       0.00000000
Si       1.08326871       0.18590148      -3.69319515       0.00000000
Si       2.64043863      -2.81000871       0.00970291       0.00000000
Si      -0.09788661       2.68656309       2.77444793       0.00000000
