10
Lattice="16.28999089631971 0.0 0.0 0.0 16.28999089631971 0.0 0.0 0.0 34.24959146834617" Properties=species:S:1:pos:R:3:initial_magmoms:R:1 pbc="T T T"
Si      -1.35747828      -1.35456237      -1.35748332       0.00000000
Si      -1.35734796       1.35749457       1.35703807       0.00000000
Si       1.35734796      -1.35738054       1.35720932       0.00000000
Si       1.35808101       1.35671265      -1.35833956       0.00000000
Si      -2.71332756      -0.00026064       2.71417889       0.00000000
Si      -0.00035838      -2.71430496       2.71363090       0.00000000
Si      -2.71621089       0.00011403      -2.71304865       0.00000000
Si       2.71552671      -0.00070047       2.71397339       0.00000000
Si      -2.71523349      -2.71435383      -0.00023975       0.00000000
Si      -2.71498914       2.71480995      -0.00051374       0.00000000
