10
Lattice="16.28999089631971 0.0 0.0 0.0 16.28999089631971 0.0 0.0 0.0 34.24959146834617" Properties=species:S:1:pos:R:3:initial_magmoms:R:1 pbc="T T T"
Si       1.65226212       0.92589102      -1.41529666       0.00000000
Si       1.73207695      -0.98844462       1.30227294       0.00000000
Si      -1.15344603      -1.78681752      -1.08756214       0.00000000
Si      -1.91749590       1.86351084       0.11449645       0.00000000
Si       1.93008874       1.63639566       1.83944384       0.00000000
Si      -1.25533998      -0.40773870       3.26415914       0.00000000
Si       0.30892356       2.30220054      -2.70017080       0.00000000
Si      -2.39518386      -0.46496547      -2.69489636       0.00000000
Si       3.37006610       1.75176144      -0.03784582       0.00000000
Si       1.15331571      -1.22968323       3.52918263       0.00000000
