10
Lattice="16.28999089631971 0.0 0.0 0.0 16.28999089631971 0.0 0.0 0.0 34.24959146834617" Properties=species:S:1:pos:R:3:initial_magmoms:R:1 pbc="T T T"
Si       0.57876124       0.24123861      -2.22690968       0.00000000
Si       1.32499506       1.88634942       0.39541175       0.00000000
Si       0.23104107      -2.02481442       1.18082382       0.00000000
Si      -2.40865569       0.82194453      -0.26502349       0.00000000
Si      -2.68337025      -0.30439494       1.71275453       0.00000000
Si      -1.10745936       1.12765896       2.81576324       0.00000000
Si       0.77677303       2.86607889      -1.68973879       0.00000000
Si      -2.02520538      -2.57355936       1.60144329       0.00000000
Si       3.53035970       1.19197188       0.43466181       0.00000000
Si       0.39444606       3.07115370       2.19118734       0.00000000
