10
Lattice="16.28999089631971 0.0 0.0 0.0 16.28999089631971 0.0 0.0 0.0 34.24959146834617" Properties=species:S:1:pos:R:3:initial_magmoms:R:1 pbc="T T T"
Si       0.09423765       1.66061889      -1.59051767       0.00000000
Si       0.37203102      -2.13131844      -0.80808531       0.00000000
Si       1.43759317       0.19860768       1.79748806       0.00000000
Si      -2.39627529       0.50270940       0.72646849       0.00000000
Si      -1.79978436      -1.44959823       1.98181947       0.00000000
Si       0.33054039      -1.54264671       2.91957381       0.00000000
Si      -3.04246701       0.00009774      -1.51318205       0.00000000
Si      -1.75358592       2.77024482       1.28795661       0.00000000
Si      -0.25803360       3.56646744      -0.37273851       0.00000000
Si      -1.60029702       1.06816788      -3.05030457       0.00000000
