10
Lattice="16.28999089631971 0.0 0.0 0.0 16.28999089631971 0.0 0.0 0.0 34.24959146834617" Properties=species:S:1:pos:R:3:initial_magmoms:R:1 pbc="T T T"
Si      -2.06047323      -0.18702549       1.04146216       0.00000000
Si      -0.16052166       1.66700457      -1.63343243       0.00000000
Si       0.91359207      -2.14179291      -0.67355284       0.00000000
Si      -0.62551971       0.97829595       2.81053473       0.00000000
Si       0.50264424       2.64337830       1.61995148       0.00000000
Si       2.13633576       1.36862064      -2.32791178       0.00000000
Si      -1.31186628       0.55651527      -3.48342515       0.00000000
Si       3.32203599      -1.59078366      -0.88689367       0.00000000
Si       1.15647597      -3.41475867       1.40608351       0.00000000
Si      -0.54494937      -3.07662714      -2.38041644       0.00000000
