10
Lattice="16.28999089631971 0.0 0.0 0.0 16.28999089631971 0.0 0.0 0.0 34.24959146834617" Properties=species:S:1:pos:R:3:initial_magmoms:R:1 pbc="T T T"
Si      -1.35433431       1.35508365       1.35631883       0.00000000
Si      -1.35584928      -1.35850455      -1.35803131       0.00000000
Si       1.35933534       1.35638685      -1.35809981       0.00000000
Si       1.36021500      -1.36099692       1.36066853       0.00000000
Si      -2.69796609      -0.00667890       2.72537851       0.00000000
Si      -0.00741195       2.69649999       2.72818698       0.00000000
Si      -2.71295289       2.71241532      -0.00017125       0.00000000
Si      -2.71182888      -2.71625976      -0.00089049       0.00000000
Si      -2.71349046      -0.00118917      -2.71558313       0.00000000
Si       0.00197109       2.71443528      -2.71534338       0.00000000
