10
Lattice="16.28999089631971 0.0 0.0 0.0 16.28999089631971 0.0 0.0 0.0 34.24959146834617" Properties=species:S:1:pos:R:3:initial_magmoms:R:1 pbc="T T T"
Si      -0.85569741      -1.76832837       1.33785829       0.00000000
Si      -1.34803008       1.33638273      -1.46711632       0.00000000
Si       1.37072205      -1.32963867      -1.47680896       0.00000000
Si       0.85732641       2.05141599       1.18972872       0.00000000
Si      -2.62749555      -2.75239098      -0.07360241       0.00000000
Si      -2.68799661       2.70734913      -0.06230004       0.00000000
Si       2.71406061      -2.70594819      -0.19193482       0.00000000
Si       2.73240315       2.72907999      -0.08202782       0.00000000
Si      -2.69495244      -0.00503361      -2.83898447       0.00000000
Si       0.01883124       2.71140534      -2.83453202       0.00000000
