10
Lattice="16.28999089631971 0.0 0.0 0.0 16.28999089631971 0.0 0.0 0.0 34.24959146834617" Properties=species:S:1:pos:R:3:initial_magmoms:R:1 pbc="T T T"
Si      -1.35747392       1.35710361      -1.35714082       0.00000000
Si      -1.35651281      -1.35711664       1.35809981       0.00000000
Si       1.35699786      -1.35746688      -1.35734632       0.00000000
Si       1.35782865       1.35822762       1.35659283       0.00000000
Si      -2.71351868       0.00035838      -2.71376790       0.00000000
Si      -0.00179194      -2.71459201      -2.71393914       0.00000000
Si       2.71560341       0.00052128      -2.71373365       0.00000000
Si       2.71397441       2.71551042       0.00000000       0.00000000
Si       2.71133543       0.00100998       2.71815185       0.00000000
Si      -2.71496849      -2.71517700       0.00006850       0.00000000
