10
Lattice="16.28999089631971 0.0 0.0 0.0 16.28999089631971 0.0 0.0 0.0 34.24959146834617" Properties=species:S:1:pos:R:3:initial_magmoms:R:1 pbc="T T T"
Si       2.24119449      -0.15224634      -0.52997847       0.00000000
Si      -0.27577341       1.27786905       1.96181770       0.00000000
Si      -0.74694537       1.01955852      -1.99178610       0.00000000
Si      -0.37581030      -2.31451578       0.52717001       0.00000000
Si      -2.63709755      -0.33096393      -2.28307904       0.00000000
Si       2.15495523      -0.28773027      -2.94529526       0.00000000
Si       3.05802396      -1.80139707       1.05088080       0.00000000
Si      -3.60521225      -0.90609867      -0.12247661       0.00000000
Si      -2.53965010       1.42382745       2.48309677       0.00000000
Si      -2.59119233      -2.61990441       1.14797845       0.00000000
