10
Lattice="16.28999089631971 0.0 0.0 0.0 16.28999089631971 0.0 0.0 0.0 34.24959146834617" Properties=species:S:1:pos:R:3:initial_magmoms:R:1 pbc="T T T"
Si       0.70811001       1.98236268       1.31368975       0.00000000
Si      -1.95596052      -0.70612263       1.36480387       0.00000000
Si       1.68637664      -1.88560008      -0.07973309       0.00000000
Si      -0.87269181      -0.52022115      -2.32839128       0.00000000
Si      -0.29738047       1.70649153      -2.41100134       0.00000000
Si       2.02892276       0.62762112       2.76092417       0.00000000
Si      -0.69275786      -2.10357657       2.77361023       0.00000000
Si       3.28981763      -0.71884512       1.21737299       0.00000000
Si       0.68447811      -3.51613134       1.37450678       0.00000000
Si      -3.03825183      -2.34419616      -0.03541410       0.00000000
