10
Lattice="16.28999089631971 0.0 0.0 0.0 16.28999089631971 0.0 0.0 0.0 34.24959146834617" Properties=species:S:1:pos:R:3:initial_magmoms:R:1 pbc="T T T"
Si      -0.73917504       2.13249132      -0.47171989       0.00000000
Si       1.70779473       0.15944652       1.59712784       0.00000000
Si       0.87478929      -0.86091021      -2.00473246       0.00000000
Si      -2.01682580      -0.80198928       1.07807499       0.00000000
Si      -0.56570283       2.81716002       1.90407285       0.00000000
Si       0.32988879       1.03322583       3.36824371       0.00000000
Si       0.76134573      -3.16097676      -1.56527570       0.00000000
Si      -2.83028066       1.74908988      -1.46598608       0.00000000
Si       3.55112226       1.13441931      -0.24084326       0.00000000
Si      -3.77783738      -0.06929766      -0.28033306       0.00000000
