10
Lattice="16.28999089631971 0.0 0.0 0.0 16.28999089631971 0.0 0.0 0.0 34.24959146834617" Properties=species:S:1:pos:R:3:initial_magmoms:R:1 pbc="T T T"
Si      -1.35837001       1.35695700      -1.35532559       0.00000000
Si       1.35779431       1.35617508       1.35696957       0.00000000
Si      -1.35740890      -1.35826020       1.35703807       0.00000000
Si       1.35860392      -1.36093176      -1.36262076       0.00000000
Si      -0.00049307       2.69871543      -2.71643594       0.00000000
Si      -2.71320931       2.71303434       0.00092474       0.00000000
Si      -2.69913475       0.00477297      -2.72835481       0.00000000
Si       0.00085154       2.71363707       2.71404189       0.00000000
Si       2.71584762       2.71218726      -0.00099324       0.00000000
Si      -2.71431703      -0.00159642       2.71407614       0.00000000
