10
Lattice="16.28999089631971 0.0 0.0 0.0 16.28999089631971 0.0 0.0 0.0 34.24959146834617" Properties=species:S:1:pos:R:3:initial_magmoms:R:1 pbc="T T T"
Si      -1.34717878      -1.34278470      -1.38043056       0.00000000
Si      -1.34646202       1.38808719       1.37710834       0.00000000
Si       1.27428036      -1.43720154       1.39978159       0.00000000
Si       1.37112441       1.37318184      -1.37488212       0.00000000
Si       2.57102952      -0.08785197       2.78113688       0.00000000
Si      -2.70814312      -2.67063147      -0.01767280       0.00000000
Si      -2.68051528       2.72476314      -0.03534560       0.00000000
Si       2.72716917      -2.69387730      -0.00993239       0.00000000
Si       0.13403249       2.87208990       2.54138961       0.00000000
Si       0.01146327      -2.70194085      -2.73664664       0.00000000
