10
Lattice="16.28999089631971 0.0 0.0 0.0 16.28999089631971 0.0 0.0 0.0 34.24959146834617" Properties=species:S:1:pos:R:3:initial_magmoms:R:1 pbc="T T T"
Si      -1.73929161       0.86328855       1.32929589       0.00000000
Si       0.89559162      -1.78393419       1.46417085       0.00000000
Si      -0.17347221      -0.68466870      -2.37579274       0.00000000
Si       2.39987538       1.47598803      -0.37808145       0.00000000
Si      -0.79191717       2.73183300      -0.61478051       0.00000000
Si       0.56570283      -2.81716002      -1.90407285       0.00000000
Si       2.27349756      -2.65771350      -0.30694501       0.00000000
Si      -0.53981313       2.10688344       2.90220039       0.00000000
Si       2.25810351      -0.60225759       3.02726284       0.00000000
Si       1.29894831       0.60157341      -3.57220014       0.00000000
