10
Lattice="16.28999089631971 0.0 0.0 0.0 16.28999089631971 0.0 0.0 0.0 34.24959146834617" Properties=species:S:1:pos:R:3:initial_magmoms:R:1 pbc="T T T"
Si       0.73514815      -1.77059268       1.18928348       0.00000000
Si      -1.19647769       1.36686818       1.43536693       0.00000000
Si       1.48618231       1.35171376      -1.19126996       0.00000000
Si      -1.48049451      -1.48400271      -1.16428126       0.00000000
Si      -1.34210313      -0.36193122       3.14096329       0.00000000
Si       0.92603437      -0.94472226       3.31971201       0.00000000
Si      -0.11598806       2.57924361      -2.53902638       0.00000000
Si       2.61318967      -0.16117326      -2.55430171       0.00000000
Si       0.28200922       3.30005168       1.70535661       0.00000000
Si      -2.81454777      -0.14732676      -2.57673520       0.00000000
