10
Lattice="16.28999089631971 0.0 0.0 0.0 16.28999089631971 0.0 0.0 0.0 34.56954931742767" Properties=species:S:1:pos:R:3:initial_magmoms:R:1 pbc="T T T"
Si      -1.42480485      -1.22626070      -1.40254068       0.00000000
Si       1.33116993      -1.34574628       1.39056781       0.00000000
Si      -1.35894438       1.37361190       1.36263214       0.00000000
Si       1.70326611       0.97862827      -1.32057183       0.00000000
Si       0.36854496      -2.17662160      -2.54126227       0.00000000
Si       2.70019782      -2.59533976      -0.00843497       0.00000000
Si       0.79215012       1.02454978      -3.52075643       0.00000000
Si       3.51228690      -0.67805333      -1.22073478       0.00000000
Si      -2.70542691      -2.69425264      -0.06781858       0.00000000
Si       2.70731655       0.01190473       2.72995538       0.00000000
