10
Lattice="16.28999089631971 0.0 0.0 0.0 16.28999089631971 0.0 0.0 0.0 34.56954931742767" Properties=species:S:1:pos:R:3:initial_magmoms:R:1 pbc="T T T"
Si       1.24025544       1.50093779      -1.35042563       0.00000000
Si      -1.46701224      -1.35879518      -1.28999802       0.00000000
Si       0.26173143       0.40665704       2.36321028       0.00000000
Si       1.34560287      -1.60913990       1.64948697       0.00000000
Si       1.98492021       2.21906615       2.15472121       0.00000000
Si      -0.05563035      -2.62574993      -2.78177862       0.00000000
Si       2.65870719       0.09725944      -2.77935875       0.00000000
Si       1.83532914       3.41312315       0.05793860       0.00000000
Si      -2.75921486       0.08000834      -2.77251397       0.00000000
Si      -2.58260683      -2.97701120       0.04200203       0.00000000
