10
Lattice="16.28999089631971 0.0 0.0 0.0 16.28999089631971 0.0 0.0 0.0 34.56954931742767" Properties=species:S:1:pos:R:3:initial_magmoms:R:1 pbc="T T T"
Si      -1.31396769       1.29767769      -1.44203499       0.00000000
Si      -1.24025544      -1.50093779       1.35042563       0.00000000
Si       0.59507370       1.91218536       1.40836423       0.00000000
Si       1.41845175      -1.40367835      -1.42893312       0.00000000
Si       2.53908972       2.51558325       0.04659978       0.00000000
Si       0.74466477       0.71812836       3.50514684       0.00000000
Si      -2.73958704       2.58297498       0.04545898       0.00000000
Si      -2.64732048      -0.05582583      -2.80888116       0.00000000
Si       0.06428034       2.66338242      -2.80628844       0.00000000
Si       2.82688515      -2.74197238      -0.01842558       0.00000000
