10
Lattice="16.28999089631971 0.0 0.0 0.0 16.28999089631971 0.0 0.0 0.0 34.56954931742767" Properties=species:S:1:pos:R:3:initial_magmoms:R:1 pbc="T T T"
Si       1.35653346      -1.35716877       1.35910259       0.00000000
Si      -1.35760860       1.35689184       1.35882603       0.00000000
Si      -1.35192339      -1.35417141      -1.36863688       0.00000000
Si       1.35241209       1.34819298      -1.38635378       0.00000000
Si       2.71433754      -2.71587857      -0.00131364       0.00000000
Si      -2.71524978      -2.71502661      -0.00159020       0.00000000
Si      -0.00076563       2.71453302       2.71595816       0.00000000
Si      -2.71627605       2.71469592      -0.00459775       0.00000000
Si       2.71440270      -0.00017919       2.71664955       0.00000000
Si       2.71508688       2.71663443       0.00155563       0.00000000
