10
Lattice="16.28999089631971 0.0 0.0 0.0 16.28999089631971 0.0 0.0 0.0 34.56954931742767" Properties=species:S:1:pos:R:3:initial_magmoms:R:1 pbc="T T T"
Si      -1.35742941       1.35746199       1.36373491       0.00000000
Si       1.35866745      -1.35780408       1.36342379       0.00000000
Si      -1.36713825      -1.34951247      -1.36662839       0.00000000
Si       1.37904624       1.35032697      -1.38809955       0.00000000
Si       2.71529865       2.71459818       0.00418292       0.00000000
Si       2.71627605      -2.71469592       0.00459775       0.00000000
Si      -2.71503801      -2.71668330       0.00311126       0.00000000
Si      -2.71725019       2.71834488       0.00245444       0.00000000
Si      -2.71464216      -0.00055386       2.72103989       0.00000000
Si       0.00053757      -2.71516833       2.72079790       0.00000000
