10
Lattice="16.28999089631971 0.0 0.0 0.0 16.28999089631971 0.0 0.0 0.0 34.56954931742767" Properties=species:S:1:pos:R:3:initial_magmoms:R:1 pbc="T T T"
Si      -0.16055424       0.14299362       2.35114550       0.00000000
Si      -1.14106563       2.08331181      -0.02468267       0.00000000
Si      -0.89332731      -2.01626217      -0.95854500       0.00000000
Si       2.32779213       0.08524557      -0.60254758       0.00000000
Si       0.83075742       2.34426132       2.62680324       0.00000000
Si       0.33313050      -3.72767328       0.14024874       0.00000000
Si      -2.07552519       2.37073257      -2.11209693       0.00000000
Si       3.37825278      -1.69701075       0.54205084       0.00000000
Si       0.28463517       3.72949776       0.77912894       0.00000000
Si       0.79664616      -1.72141317       3.39445508       0.00000000
