10
Lattice="16.28999089631971 0.0 0.0 0.0 16.28999089631971 0.0 0.0 0.0 34.56954931742767" Properties=species:S:1:pos:R:3:initial_magmoms:R:1 pbc="T T T"
Si      -0.36769788       0.75546504       2.24264100       0.00000000
Si       2.47269168       0.17306496      -0.29404875       0.00000000
Si      -1.39773087       1.95607062      -0.80225598       0.00000000
Si      -0.34881777      -2.25033318      -1.19261555       0.00000000
Si       2.17368873       1.72814094      -2.17062321       0.00000000
Si       0.28712754       3.19086891      -1.96216872       0.00000000
Si      -1.18099242      -1.08274743       3.46618145       0.00000000
Si       1.89786645      -3.17234718      -1.15071723       0.00000000
Si      -2.10538476       2.68819209       1.85718094       0.00000000
Si      -3.20624667       0.94004703      -2.13276954       0.00000000
