10
Lattice="16.28999089631971 0.0 0.0 0.0 16.28999089631971 0.0 0.0 0.0 34.56954931742767" Properties=species:S:1:pos:R:3:initial_magmoms:R:1 pbc="T T T"
Si       1.34521191      -1.27511604      -1.41925018       0.00000000
Si       1.36050822       1.34117199       1.36557056       0.00000000
Si      -1.35378045      -1.37370312       1.35661704       0.00000000
Si      -1.33520985       1.34998488      -1.43935930       0.00000000
Si      -0.46719720      -2.17741914      -2.66656067       0.00000000
Si      -2.20488408      -0.24469209      -3.05202073       0.00000000
Si      -2.71094922       2.68836361      -0.00720430       0.00000000
Si       2.70138699       2.69849124       0.01902709       0.00000000
Si       0.00547344       2.69773778       2.71928030       0.00000000
Si      -2.70989037      -0.01407456       2.71862347       0.00000000
