10
Lattice="16.28999089631971 0.0 0.0 0.0 16.28999089631971 0.0 0.0 0.0 34.56954931742767" Properties=species:S:1:pos:R:3:initial_magmoms:R:1 pbc="T T T"
Si      -2.08512067       1.04539446      -0.17343553       0.00000000
Si      -0.34876564      -0.92459338       2.17618892       0.00000000
Si       0.03660526      -1.80397645      -1.58432333       0.00000000
Si       1.95742921       1.36875259      -0.54910303       0.00000000
Si       1.76097181       0.88633075      -2.93073889       0.00000000
Si      -1.89519556       2.57711221      -1.89171593       0.00000000
Si       1.02748198      -3.56749927      -0.43139365       0.00000000
Si       2.25574798      -1.41881569      -2.68674687       0.00000000
Si      -3.79698790      -0.58142824       0.26089653       0.00000000
Si      -2.34069448       2.76205258       1.39049176       0.00000000
