10
Lattice="16.28999089631971 0.0 0.0 0.0 16.28999089631971 0.0 0.0 0.0 34.56954931742767" Properties=species:S:1:pos:R:3:initial_magmoms:R:1 pbc="T T T"
Si       1.60915878      -0.98904735      -1.40691230       0.00000000
Si      -1.12989069      -1.78844652       1.10951031       0.00000000
Si      -1.08387144       2.01579695       0.71372331       0.00000000
Si      -1.34560287       1.60913990      -1.64948697       0.00000000
Si       2.58115050      -0.25244613       0.89673461       0.00000000
Si       0.69274854      -3.11059179       1.90049661       0.00000000
Si       1.98304686      -3.20678424      -0.20852364       0.00000000
Si      -2.07827820      -0.85128282       3.08249930       0.00000000
Si       0.05874174      -2.31863715      -3.04578641       0.00000000
Si      -2.48995908      -2.97634590      -0.46222970       0.00000000
