10
Lattice="16.28999089631971 0.0 0.0 0.0 16.28999089631971 0.0 0.0 0.0 34.56954931742767" Properties=species:S:1:pos:R:3:initial_magmoms:R:1 pbc="T T T"
Si       1.27501830      -1.40243868      -1.39564262       0.00000000
Si      -1.45997496       1.30202712      -1.38547917       0.00000000
Si      -1.01156013      -1.86098589       1.16762175       0.00000000
Si       1.55041704       1.32958980       1.63887411       0.00000000
Si       1.92430512      -0.88814709       2.83726278       0.00000000
Si      -2.54870082      -0.65770875       2.58355671       0.00000000
Si       2.66279598       2.68674246       0.02744824       0.00000000
Si       2.66833458      -2.69791722       0.10657798       0.00000000
Si       2.61636948      -0.06090831      -2.76380244       0.00000000
Si      -0.05874174       2.31863715       3.04578641       0.00000000
