10
Lattice="16.28999089631971 0.0 0.0 0.0 16.28999089631971 0.0 0.0 0.0 34.56954931742767" Properties=species:S:1:pos:R:3:initial_magmoms:R:1 pbc="T T T"
Si      -1.60915878       0.98904735       1.40691230       0.00000000
Si       1.11237894       1.35715266      -1.61142587       0.00000000
Si       0.37388808      -2.21773689       1.19838867       0.00000000
Si       0.97199172       0.73660122       2.30364691       0.00000000
Si      -1.55041704      -1.32958980      -1.63887411       0.00000000
Si       2.26097055       3.02719418      -0.31375340       0.00000000
Si      -2.73904947      -0.79939917       2.51642261       0.00000000
Si       2.42937657      -0.03546333      -3.02580520       0.00000000
Si      -2.95476165       2.59818725      -0.24257466       0.00000000
Si      -0.91641024      -2.12154444       3.30740891       0.00000000
