10
Lattice="16.28999089631971 0.0 0.0 0.0 16.28999089631971 0.0 0.0 0.0 34.56954931742767" Properties=species:S:1:pos:R:3:initial_magmoms:R:1 pbc="T T T"
Si      -1.93930821      -1.13415867      -0.58750982       0.00000000
Si      -0.30604023       0.66419217       2.20629901       0.00000000
Si      -0.05090625       1.72398699      -1.59127181       0.00000000
Si       1.85953608      -1.26482076      -1.60340573       0.00000000
Si      -0.64900989      -1.23035112      -2.69653006       0.00000000
Si       1.45937223       2.36090239       2.25206912       0.00000000
Si       1.83049101      -3.10603059       0.02540863       0.00000000
Si       0.59500854      -1.24620129       3.35525319       0.00000000
Si      -2.78097993       0.94736124       2.19817516       0.00000000
Si      -3.76194744       0.18798660      -1.37849612       0.00000000
