10
Lattice="16.28999089631971 0.0 0.0 0.0 16.28999089631971 0.0 0.0 0.0 34.56954931742767" Properties=species:S:1:pos:R:3:initial_magmoms:R:1 pbc="T T T"
Si       0.05090625      -1.72398699       1.59127181       0.00000000
Si       1.31782842       1.94753044       0.43246530       0.00000000
Si      -0.97199172      -0.73660122      -2.30364691       0.00000000
Si      -2.58115050       0.25244613      -0.89673461       0.00000000
Si      -0.59810364      -2.95433811      -1.10525825       0.00000000
Si       1.91044233      -2.98880775      -0.01213392       0.00000000
Si      -1.88840196      -2.85814566       1.00376199       0.00000000
Si       1.28897883       2.29059296      -2.61740032       0.00000000
Si       3.37882293       1.63199151      -0.91709609       0.00000000
Si       0.49705677       3.76545698      -0.91014760       0.00000000
