10
Lattice="16.28999089631971 0.0 0.0 0.0 16.28999089631971 0.0 0.0 0.0 34.56954931742767" Properties=species:S:1:pos:R:3:initial_magmoms:R:1 pbc="T T T"
Si       1.31699763      -1.39261599      -1.41437933       0.00000000
Si      -1.11237894      -1.35715266       1.61142587       0.00000000
Si      -1.40843340       1.33829404      -1.41050754       0.00000000
Si       1.14859161       1.67004151       1.29767247       0.00000000
Si      -2.66279598      -2.68674246      -0.02744824       0.00000000
Si       2.67823890       2.74288462      -0.03736970       0.00000000
Si       2.77539246      -2.64634326       0.05845714       0.00000000
Si       2.66766669      -0.02826668      -2.78813942       0.00000000
Si      -0.04580748       2.68700992      -2.78872710       0.00000000
Si      -0.04642650      -2.74765077      -2.79125068       0.00000000
