10
Lattice="16.28999089631971 0.0 0.0 0.0 16.28999089631971 0.0 0.0 0.0 34.56954931742767" Properties=species:S:1:pos:R:3:initial_magmoms:R:1 pbc="T T T"
Si       0.79192206      -1.47486402      -1.70725272       0.00000000
Si       0.82077165      -1.81792653       1.34261291       0.00000000
Si      -2.43888993       0.31519521       0.51864724       0.00000000
Si       1.50094431       1.99397745      -0.42174874       0.00000000
Si      -2.58848100       1.50925221      -1.57813538       0.00000000
Si       2.88176616      -2.13346546      -0.00694848       0.00000000
Si      -0.64446498       2.11265010      -2.93989983       0.00000000
Si       0.78442866      -0.97076997       3.63350365       0.00000000
Si       2.32156935      -0.40202091      -3.04229489       0.00000000
Si      -0.49705677      -3.76545698       0.91014760       0.00000000
