10
Lattice="16.28999089631971 0.0 0.0 0.0 16.28999089631971 0.0 0.0 0.0 34.56954931742767" Properties=species:S:1:pos:R:3:initial_magmoms:R:1 pbc="T T T"
Si      -0.05463666      -0.29882376      -2.27882596       0.00000000
Si      -2.09319984       1.08186777       0.21740802       0.00000000
Si       2.13672672       0.84380571       0.66577532       0.00000000
Si      -0.65735037      -1.84248045       1.38430381       0.00000000
Si      -2.05372917      -1.69873749      -2.25556064       0.00000000
Si      -2.10603636       1.29505500       2.57252902       0.00000000
Si      -1.15553115      -0.72583353       3.36607347       0.00000000
Si      -3.59899857      -0.58790610      -0.68278355       0.00000000
Si       2.06340543      -1.00831842      -3.05491278       0.00000000
Si       2.04055056       1.49226174       2.89150243       0.00000000
