10
Lattice="16.28999089631971 0.0 0.0 0.0 16.28999089631971 0.0 0.0 0.0 34.56954931742767" Properties=species:S:1:pos:R:3:initial_magmoms:R:1 pbc="T T T"
Si       0.96751197      -1.72687032       1.23928447       0.00000000
Si      -1.17789732      -1.60819767      -1.27886662       0.00000000
Si      -0.79907337       0.78666039       2.12786066       0.00000000
Si       1.66573395       1.17633348      -1.29535631       0.00000000
Si      -0.33850620       3.04308603       1.46844614       0.00000000
Si      -2.29601034      -0.10546146      -2.75595515       0.00000000
Si       2.79168246      -2.44885941      -0.12272197       0.00000000
Si       0.41099670       2.60420085      -2.75457237       0.00000000
Si      -3.12191334      -2.21159556       0.08289783       0.00000000
Si       2.69019576       2.88144036       0.02036148       0.00000000
