10
Lattice="16.28999089631971 0.0 0.0 0.0 16.28999089631971 0.0 0.0 0.0 34.56954931742767" Properties=species:S:1:pos:R:3:initial_magmoms:R:1 pbc="T T T"
Si      -2.23992387      -0.06590934       0.58557392       0.00000000
Si       0.80519841       1.96475319       0.98737602       0.00000000
Si       0.01283652      -0.21318723      -2.35512100       0.00000000
Si       0.95050521      -2.02088853       0.79354445       0.00000000
Si       2.10603636      -1.29505500      -2.57252902       0.00000000
Si      -2.70775638      -2.37016242       0.38672976       0.00000000
Si       1.44868599      -3.13753545      -1.18822521       0.00000000
Si      -0.94423356      -3.08294766       1.86990254       0.00000000
Si      -0.24526224       3.74700951      -0.15722240       0.00000000
Si       0.47824182       1.84904532       3.33945490       0.00000000
