10
Lattice="16.28999089631971 0.0 0.0 0.0 16.28999089631971 0.0 0.0 0.0 34.56954931742767" Properties=species:S:1:pos:R:3:initial_magmoms:R:1 pbc="T T T"
Si      -1.79018955      -1.40968773      -0.36145941       0.00000000
Si      -1.21536432       1.93572441       0.49520907       0.00000000
Si       1.23364170       0.21870954      -2.08146830       0.00000000
Si      -0.24340518      -1.50226380       2.63140100       0.00000000
Si      -1.50964317      -1.75824486      -2.62524761       0.00000000
Si       0.43753311       3.11889969       1.78406630       0.00000000
Si       0.74500686      -1.84955031      -3.12557298       0.00000000
Si      -1.33147944      -3.40146603       0.79454697       0.00000000
Si       2.02800726       1.68766029       3.04552960       0.00000000
Si      -1.51436727       3.49080039      -1.38136539       0.00000000
