10
Lattice="16.28999089631971 0.0 0.0 0.0 16.28999089631971 0.0 0.0 0.0 34.56954931742767" Properties=species:S:1:pos:R:3:initial_magmoms:R:1 pbc="T T T"
Si      -1.36902789       1.24959348       1.39900279       0.00000000
Si       0.81208908       1.91728643      -1.21229981       0.00000000
Si       1.36580247      -1.44733392       1.36918653       0.00000000
Si      -1.36585134      -1.43164665      -1.45124920       0.00000000
Si      -2.33165286       0.41871816      -2.53282729       0.00000000
Si      -2.70019782       2.59533976       0.00843497       0.00000000
Si       0.00711873       2.60724449       2.73839035       0.00000000
Si      -2.72520297      -2.72401380      -0.03927449       0.00000000
Si      -2.70990666      -0.10772577       2.74554625       0.00000000
Si       2.72258028      -0.10844253       2.73852863       0.00000000
