10
Lattice="16.28999089631971 0.0 0.0 0.0 16.28999089631971 0.0 0.0 0.0 34.56954931742767" Properties=species:S:1:pos:R:3:initial_magmoms:R:1 pbc="T T T"
Si      -1.35773892      -1.35601218       1.35702842       0.00000000
Si       1.35772263       1.35731538       1.35792723       0.00000000
Si       1.35760860      -1.35786924      -1.35758153       0.00000000
Si      -1.35777150       1.35760860      -1.35775438       0.00000000
Si      -2.71476108      -0.00374670       2.71471366       0.00000000
Si      -2.71466334      -2.71489140       0.00031113       0.00000000
Si       2.71487511      -2.71479366      -0.00020742       0.00000000
Si      -2.71474479       2.71503921      -0.00038027       0.00000000
Si       2.71482624       2.71502989       0.00013828       0.00000000
Si       0.00203625      -2.71549413      -2.71443710       0.00000000
