10
Lattice="16.28999089631971 0.0 0.0 0.0 16.28999089631971 0.0 0.0 0.0 34.56954931742767" Properties=species:S:1:pos:R:3:initial_magmoms:R:1 pbc="T T T"
Si       1.35066906       1.36434931      -1.37376009       0.00000000
Si      -1.36342413      -1.35503478      -1.37687135       0.00000000
Si      -1.31699763       1.39261599       1.41437933       0.00000000
Si       1.45839483      -1.25372727       1.47283647       0.00000000
Si      -2.70477531      -2.69656515      -0.00871153       0.00000000
Si       2.72269431      -2.70562239       0.00487431       0.00000000
Si       2.71225242       2.72179577       0.00314583       0.00000000
Si      -0.00640197      -2.70730026      -2.73455659       0.00000000
Si       2.70905958       0.00602730      -2.73365778       0.00000000
Si      -2.72077209       0.00578295      -2.73441831       0.00000000
