10
Lattice="16.28999089631971 0.0 0.0 0.0 16.28999089631971 0.0 0.0 0.0 34.56954931742767" Properties=species:S:1:pos:R:3:initial_magmoms:R:1 pbc="T T T"
Si       1.24804206      -1.76435361      -0.92857318       0.00000000
Si       1.25574723       0.07128504       2.01160320       0.00000000
Si       0.64063683       2.16534825      -0.79693227       0.00000000
Si      -2.36600847      -0.32785254       0.29138689       0.00000000
Si      -2.23765956      -0.28774656       2.66597056       0.00000000
Si       3.30300927       0.68748687       1.12880012       0.00000000
Si       3.44862558      -0.87138468      -0.65751320       0.00000000
Si      -1.50164478       3.27925114      -0.81179718       0.00000000
Si      -3.26705724       1.58254092      -0.85756729       0.00000000
Si       0.59873895       1.93842855       3.28607949       0.00000000
