10
Lattice="16.28999089631971 0.0 0.0 0.0 16.28999089631971 0.0 0.0 0.0 34.56954931742767" Properties=species:S:1:pos:R:3:initial_magmoms:R:1 pbc="T T T"
Si       0.12834891       0.04010598       2.37458367       0.00000000
Si      -0.58803642      -2.16319797      -0.81777772       0.00000000
Si      -0.90104877       1.91039346      -1.14895418       0.00000000
Si       2.36600847       0.32785254      -0.29138689       0.00000000
Si      -0.59500854       1.24620129      -3.35525319       0.00000000
Si       0.67678434       2.34502695       2.71792863       0.00000000
Si       0.86436369       3.60710368      -1.10318407       0.00000000
Si       1.48599009      -1.83611106       3.13597842       0.00000000
Si       0.68864346      -3.90264417       0.10204937       0.00000000
Si      -2.92519530      -2.57355936      -0.78400325       0.00000000
