10
Lattice="16.28999089631971 0.0 0.0 0.0 16.28999089631971 0.0 0.0 0.0 34.56954931742767" Properties=species:S:1:pos:R:3:initial_magmoms:R:1 pbc="T T T"
Si      -1.12414032      -2.02650858       0.29802425       0.00000000
Si      -1.46473164       1.65767759       0.78908497       0.00000000
Si       2.39669883      -0.56581686       0.17865553       0.00000000
Si      -0.46084410       1.08993132      -2.21608220       0.00000000
Si      -2.42176914      -1.69756461      -1.71914465       0.00000000
Si       0.73972890      -3.29927886       0.91018217       0.00000000
Si       0.59463387       3.17779523      -1.58297512       0.00000000
Si      -2.77070094       0.54952686      -2.39204130       0.00000000
Si       0.31737807      -0.38224485      -3.89533356       0.00000000
Si       2.55836079      -2.95324668      -0.61060229       0.00000000
