10
Lattice="16.28999089631971 0.0 0.0 0.0 16.28999089631971 0.0 0.0 0.0 34.56954931742767" Properties=species:S:1:pos:R:3:initial_magmoms:R:1 pbc="T T T"
Si      -1.46284200      -1.34359757      -1.15230743       0.00000000
Si       1.68163299      -1.53938382       0.59988572       0.00000000
Si       1.13187807       1.02294684      -1.79879293       0.00000000
Si      -1.47266487       1.59576840       0.97444700       0.00000000
Si       3.18868509       0.13325220       1.30306532       0.00000000
Si      -0.52647651       3.42660150      -0.19137713       0.00000000
Si       3.05368335       1.72195074      -0.52435122       0.00000000
Si      -3.22437744       0.09185931      -1.69857575       0.00000000
Si       1.38745188      -0.69371128      -3.36272022       0.00000000
Si      -0.43030035       2.77814547      -2.41710424       0.00000000
