10
Lattice="16.28999089631971 0.0 0.0 0.0 16.28999089631971 0.0 0.0 0.0 34.56954931742767" Properties=species:S:1:pos:R:3:initial_magmoms:R:1 pbc="T T T"
Si       1.35530920      -1.35599589       1.35858405       0.00000000
Si       1.35627358       1.35796698      -1.35740868       0.00000000
Si      -1.35835794      -1.35674523      -1.35751239       0.00000000
Si      -1.35966114       1.35954711       1.35695928       0.00000000
Si       2.71362797       2.71327869      -0.00069139       0.00000000
Si       2.71297311      -2.71521720       0.00003457       0.00000000
Si       2.71402381       0.00011403      -2.71474823       0.00000000
Si      -0.00071676      -2.71441899      -2.71471366       0.00000000
Si      -2.71432125       2.71634121       0.00013828       0.00000000
Si      -2.71630863       0.00076563      -2.71474823       0.00000000
