10
Lattice="16.28999089631971 0.0 0.0 0.0 16.28999089631971 0.0 0.0 0.0 34.56954931742767" Properties=species:S:1:pos:R:3:initial_magmoms:R:1 pbc="T T T"
Si       1.34166788       1.36184400       1.35689014       0.00000000
Si       1.35536777      -1.36073628      -1.36034710       0.00000000
Si      -1.35887922       1.35777150      -1.35986312       0.00000000
Si      -1.36961433      -1.36407573       1.37044141       0.00000000
Si       2.67158348      -0.05220945       2.67941813       0.00000000
Si      -0.07242534       2.57522094       2.82706475       0.00000000
Si       2.71620179       2.71309950       0.00044940       0.00000000
Si       2.71344878      -0.00092853      -2.71696068       0.00000000
Si      -0.00161874       2.71376739      -2.71713353       0.00000000
Si      -2.71772586       2.71336014      -0.00041483       0.00000000
