10
Lattice="16.28999089631971 0.0 0.0 0.0 16.28999089631971 0.0 0.0 0.0 34.56954931742767" Properties=species:S:1:pos:R:3:initial_magmoms:R:1 pbc="T T T"
Si      -1.20787092       1.97152983       0.34006085       0.00000000
Si       2.37001581       0.35570844      -0.16593393       0.00000000
Si      -0.89884962      -1.40043501       1.75164004       0.00000000
Si      -2.61454500       1.12848975      -1.44950201       0.00000000
Si      -0.03650589       3.41791893      -1.40725800       0.00000000
Si       3.08920043      -1.60060653      -1.30275419       0.00000000
Si      -1.99510146      -3.12919497       0.46388904       0.00000000
Si      -1.38746817       2.39948442       2.61508416       0.00000000
Si      -1.98571842       0.15780123       3.35456180       0.00000000
Si       2.86075436       1.59444891      -2.30942003       0.00000000
