10
Lattice="16.28999089631971 0.0 0.0 0.0 16.28999089631971 0.0 0.0 0.0 34.56954931742767" Properties=species:S:1:pos:R:3:initial_magmoms:R:1 pbc="T T T"
Si      -2.09761443       0.60064488       0.85981431       0.00000000
Si       1.26105777      -0.61418187       1.90066945       0.00000000
Si      -0.53932932      -1.90939977      -1.36815982       0.00000000
Si       0.93185316       1.95411582      -1.07138007       0.00000000
Si      -3.29053113       0.64887957      -1.19351436       0.00000000
Si       3.45975884      -0.31713372       1.01271551       0.00000000
Si      -2.20366233      -0.90935667      -2.79643612       0.00000000
Si      -2.61838944      -0.95368176       2.59966613       0.00000000
Si       2.47864635       1.15789320      -2.69110264       0.00000000
Si       0.33208794       0.58779207       3.78567889       0.00000000
