10
Lattice="16.28999089631971 0.0 0.0 0.0 16.28999089631971 0.0 0.0 0.0 34.56954931742767" Properties=species:S:1:pos:R:3:initial_magmoms:R:1 pbc="T T T"
Si       1.35348723       1.36158566       1.39515174       0.00000000
Si      -1.36106208      -1.35588186       1.39750247       0.00000000
Si      -1.27099467       1.48833489      -1.45787476       0.00000000
Si       1.46779416      -1.35141840      -1.54571949       0.00000000
Si      -2.71783989      -2.69477325       0.02816037       0.00000000
Si      -2.70171279       2.72534048       0.02893473       0.00000000
Si       2.71411931       2.71348136       0.01205441       0.00000000
Si       2.72971530      -2.70282051       0.00619832       0.00000000
Si      -0.00350235      -2.71187775       2.75729645       0.00000000
Si       2.71243561       0.00342889       2.75733102       0.00000000
