10
Lattice="16.28999089631971 0.0 0.0 0.0 16.28999089631971 0.0 0.0 0.0 34.56954931742767" Properties=species:S:1:pos:R:3:initial_magmoms:R:1 pbc="T T T"
Si       1.35533154       1.35964288      -1.38406182       0.00000000
Si      -1.35915615      -1.35641943      -1.38686195       0.00000000
Si      -1.29797091       1.44246551       1.47816019       0.00000000
Si       1.28614437      -1.49455863       1.44061763       0.00000000
Si       2.70023759      -2.70793557      -0.02955698       0.00000000
Si      -2.70171279      -2.71016730      -0.00698305       0.00000000
Si      -2.71215468       2.71725086      -0.00871153       0.00000000
Si       2.72223072       2.70911401      -0.00114080       0.00000000
Si      -0.00030951      -2.71200807      -2.74631024       0.00000000
Si       2.71498167       0.00213399      -2.74568799       0.00000000
