10
Lattice="16.28999089631971 0.0 0.0 0.0 16.28999089631971 0.0 0.0 0.0 34.56954931742767" Properties=species:S:1:pos:R:3:initial_magmoms:R:1 pbc="T T T"
Si      -0.60191550       0.70806114       2.10421507       0.00000000
Si       0.94053966       1.96810893      -0.80052750       0.00000000
Si       2.03474710      -1.26912132      -0.02876188       0.00000000
Si      -2.18748636      -0.84458763      -0.61696309       0.00000000
Si       0.70977389      -2.66805765      -1.51912512       0.00000000
Si      -0.92277963      -1.31276223      -2.75166852       0.00000000
Si       1.61300552       1.55966976       2.96700237       0.00000000
Si       1.98221674       1.42824204      -2.82540541       0.00000000
Si      -2.75141358       1.94566131       1.64689425       0.00000000
Si       3.42046736      -0.18023256      -1.68015017       0.00000000
