10
Lattice="16.28999089631971 0.0 0.0 0.0 16.28999089631971 0.0 0.0 0.0 34.56954931742767" Properties=species:S:1:pos:R:3:initial_magmoms:R:1 pbc="T T T"
Si      -1.00388754       1.32123303       1.76235661       0.00000000
Si       1.29451743       1.46768013      -1.43083445       0.00000000
Si      -1.74866634      -0.84799224      -1.65048948       0.00000000
Si       1.48603896      -1.50900786       1.60098586       0.00000000
Si       2.12542146      -2.88209196      -0.23178896       0.00000000
Si      -3.74678864      -0.13523958      -0.48058614       0.00000000
Si       3.54120165       0.54566613      -1.38893613       0.00000000
Si      -2.26933058      -0.12510720       3.13987583       0.00000000
Si       1.64333520       3.71801331      -0.23821890       0.00000000
Si      -1.68243120      -3.16456056      -1.97506316       0.00000000
