10
Lattice="16.28999089631971 0.0 0.0 0.0 16.28999089631971 0.0 0.0 0.0 34.56954931742767" Properties=species:S:1:pos:R:3:initial_magmoms:R:1 pbc="T T T"
Si       1.35578079       1.35688940       1.35761610       0.00000000
Si      -1.35845968      -1.35836593       1.35765067       0.00000000
Si       1.35588993      -1.36120039      -1.35761610       0.00000000
Si      -1.35894838       1.35815677      -1.36217928       0.00000000
Si       2.71360767      -2.71384054       0.00024199       0.00000000
Si       2.71320042       2.71485801       0.00017285       0.00000000
Si       2.71377057      -0.00047855       2.71502478       0.00000000
Si      -0.00149154       2.71432044       2.71519763       0.00000000
Si      -0.00160645      -2.71592566       2.71505935       0.00000000
Si      -2.71593796      -2.71530664      -0.00003457       0.00000000
