10
Lattice="16.28999089631971 0.0 0.0 0.0 16.28999089631971 0.0 0.0 0.0 34.56954931742767" Properties=species:S:1:pos:R:3:initial_magmoms:R:1 pbc="T T T"
Si      -2.03474710       1.26912132       0.02876188       0.00000000
Si       1.38572025       1.08888876      -1.65138829       0.00000000
Si      -1.32497321      -1.39893633      -1.49036324       0.00000000
Si       1.02074280      -0.40117383       2.28912770       0.00000000
Si      -1.81571176      -2.63767680       0.65312286       0.00000000
Si       3.03412164      -1.55732400      -0.12140833       0.00000000
Si      -1.09420744       3.23723025      -0.77176562       0.00000000
Si       2.74578864       2.27678814      -0.07964829       0.00000000
Si      -0.40226852      -2.32657038       2.67603031       0.00000000
Si      -0.05253036       2.69736336      -2.79664353       0.00000000
