10
Lattice="16.28999089631971 0.0 0.0 0.0 16.28999089631971 0.0 0.0 0.0 34.56954931742767" Properties=species:S:1:pos:R:3:initial_magmoms:R:1 pbc="T T T"
Si       1.36006839       1.18789938       1.57174001       0.00000000
Si       1.53714069      -1.20327714      -1.41593496       0.00000000
Si      -1.38572025      -1.08888876       1.65138829       0.00000000
Si      -1.43825062       1.60847460      -1.14525524       0.00000000
Si      -2.47992770       2.14834149       0.87962267       0.00000000
Si      -0.30693618      -2.16560889      -2.66565944       0.00000000
Si       1.64840139      -2.64621276       1.52997997       0.00000000
Si      -2.71069347      -2.48782509       0.16102505       0.00000000
Si       2.54870082       0.65770875      -2.58355671       0.00000000
Si      -3.42046736       0.18023256       1.68015017       0.00000000
