10
Lattice="16.28999089631971 0.0 0.0 0.0 16.28999089631971 0.0 0.0 0.0 34.56954931742767" Properties=species:S:1:pos:R:3:initial_magmoms:R:1 pbc="T T T"
Si      -1.04167708       0.53986689       2.02487791       0.00000000
Si       1.11559459       1.61821602      -1.33200005       0.00000000
Si      -1.61269438      -1.14665310      -1.37275757       0.00000000
Si       1.43825062      -1.60847460       1.14525524       0.00000000
Si      -0.19860116      -2.36003004      -2.84293219       0.00000000
Si      -1.98221674      -1.42824204       2.82540541       0.00000000
Si       2.52697648       0.35126127      -2.82378064       0.00000000
Si       0.05253036      -2.69736336       2.79664353       0.00000000
Si       2.79831901      -0.42057522       2.71699525       0.00000000
Si       2.58260683       2.97701120      -0.04200203       0.00000000
