10
Lattice="16.28999089631971 0.0 0.0 0.0 16.28999089631971 0.0 0.0 0.0 34.56954931742767" Properties=species:S:1:pos:R:3:initial_magmoms:R:1 pbc="T T T"
Si       1.98181208      -0.20207745       1.19831953       0.00000000
Si      -0.86166348      -2.17743543       0.16078306       0.00000000
Si       0.34876564       0.92459338      -2.17618892       0.00000000
Si      -1.44217392       1.12431529       1.61298150       0.00000000
Si      -2.71111605      -1.85023449      -1.26476224       0.00000000
Si      -1.73635503       1.96998784      -2.34962444       0.00000000
Si       0.06487818       2.79695132       2.31616110       0.00000000
Si       2.17835093       1.82081705       2.40151336       0.00000000
Si      -1.34912544      -2.59768485       2.44500188       0.00000000
Si       0.38537090      -0.87938307      -3.76051225       0.00000000
