10
Lattice="16.28999089631971 0.0 0.0 0.0 16.28999089631971 0.0 0.0 0.0 34.56954931742767" Properties=species:S:1:pos:R:3:initial_magmoms:R:1 pbc="T T T"
Si       1.77246114       0.27982962      -1.49181516       0.00000000
Si       0.86465202      -1.55973492       1.55362555       0.00000000
Si       0.17551335       2.00171520       1.29255617       0.00000000
Si      -1.81652626      -0.16182486      -1.62563397       0.00000000
Si       1.42427868      -3.15750699      -0.12690489       0.00000000
Si      -2.06115319       2.64345975       1.07210603       0.00000000
Si      -2.83921246       1.87841619      -1.03114109       0.00000000
Si       2.15219733      -2.00023281      -2.08789824       0.00000000
Si       3.44677992       1.42508178      -0.29764399       0.00000000
Si       2.03595189       3.19958392       0.38825083       0.00000000
