10
Lattice="16.28999089631971 0.0 0.0 0.0 16.28999089631971 0.0 0.0 0.0 34.25627252547053" Properties=species:S:1:pos:R:3:initial_magmoms:R:1 pbc="T T T"
Si      -1.34585862      -1.36597435       1.38496817       0.00000000
Si       1.36197432       1.35389758       1.38448858       0.00000000
Si       1.34801379      -1.38993694      -1.37536956       0.00000000
Si      -1.44261959       1.37093203      -1.51006187       0.00000000
Si      -2.69929850       2.70628849       0.01670679       0.00000000
Si      -2.69469543      -2.71921723       0.04220718       0.00000000
Si       2.74097169       2.69105734       0.01373335       0.00000000
Si      -2.70508047      -0.00941777       2.74480592       0.00000000
Si       2.73504213      -2.71649680       0.02963169       0.00000000
Si       0.01019754       2.70685864       2.74593638       0.00000000
