10
Lattice="16.28999089631971 0.0 0.0 0.0 16.28999089631971 0.0 0.0 0.0 34.25627252547053" Properties=species:S:1:pos:R:3:initial_magmoms:R:1 pbc="T T T"
Si       2.25124868      -0.49174623       0.36051321       0.00000000
Si      -0.66902215      -1.77621273       1.38905837       0.00000000
Si      -0.33928812      -0.41627466      -2.29229401       0.00000000
Si      -0.91818911       2.06330184       0.73037839       0.00000000
Si      -2.21480862      -0.28017171       2.48207387       0.00000000
Si      -3.12789570       1.23639049       0.86473157       0.00000000
Si       2.75107475       1.69429425       1.28735144       0.00000000
Si       2.86207481      -0.73146987      -1.86275437       0.00000000
Si       0.51155813       1.60265160      -3.18867840       0.00000000
Si      -1.34733354      -3.47341896      -0.15877791       0.00000000
