10
Lattice="16.28999089631971 0.0 0.0 0.0 16.28999089631971 0.0 0.0 0.0 34.25627252547053" Properties=species:S:1:pos:R:3:initial_magmoms:R:1 pbc="T T T"
Si      -1.54789535       1.72121769       0.55460936       0.00000000
Si       1.65346758       1.40602248       0.98414900       0.00000000
Si       0.75230478      -0.45426294      -2.24162896       0.00000000
Si      -0.63750915      -1.89135045       1.35699448       0.00000000
Si       1.04264145       1.64574612       3.20741659       0.00000000
Si      -1.20860723       2.13749235       2.84690338       0.00000000
Si      -0.69704910       3.74014395      -0.34177502       0.00000000
Si       1.17330354      -2.34914832       2.77993233       0.00000000
Si       3.01584915      -1.17063198      -2.04451826       0.00000000
Si       0.55213326       1.58185674      -3.54788987       0.00000000
