10
Lattice="16.28999089631971 0.0 0.0 0.0 16.28999089631971 0.0 0.0 0.0 34.25627252547053" Properties=species:S:1:pos:R:3:initial_magmoms:R:1 pbc="T T T"
Si      -2.29050825      -0.38758797      -0.25637409       0.00000000
Si       0.33928812       0.41627466       2.29229401       0.00000000
Si       0.85084625       2.01892626      -0.89638438       0.00000000
Si       1.54789535      -1.72121769      -0.55460936       0.00000000
Si       3.20136293      -0.31519521       0.42953964       0.00000000
Si       3.12706424       1.98326256      -0.04480723       0.00000000
Si       2.59053680      -0.07547157       2.65280723       0.00000000
Si       0.71593084       1.64666066      -3.25099059       0.00000000
Si      -2.67280197      -0.27319959      -2.59707224       0.00000000
Si      -3.44669100       1.28280492       0.90001555       0.00000000
