10
Lattice="16.28999089631971 0.0 0.0 0.0 16.28999089631971 0.0 0.0 0.0 34.25627252547053" Properties=species:S:1:pos:R:3:initial_magmoms:R:1 pbc="T T T"
Si      -1.35842310      -1.35465522       1.35812494       0.00000000
Si       1.35742941      -1.35708569      -1.35754258       0.00000000
Si       1.35866745       1.35697329       1.35723428       0.00000000
Si      -1.35808101       1.35822762      -1.35750833       0.00000000
Si       2.71432125       0.00052128       2.71179656       0.00000000
Si      -2.71419093       0.00042354       2.71278999       0.00000000
Si      -2.71448415      -2.71495340       0.00013703       0.00000000
Si      -2.71585251       0.00097740      -2.71364640       0.00000000
Si      -0.00055386       2.71490769      -2.71460558       0.00000000
Si       2.71487511      -2.71465678       0.00017128       0.00000000
