10
Lattice="16.28999089631971 0.0 0.0 0.0 16.28999089631971 0.0 0.0 0.0 34.25627252547053" Properties=species:S:1:pos:R:3:initial_magmoms:R:1 pbc="T T T"
Si      -1.40431203       1.15505874       1.45260379       0.00000000
Si       1.52705718      -1.63427193       0.80077507       0.00000000
Si       1.87673832       1.54929303      -0.30566889       0.00000000
Si      -1.70088777      -1.07460243      -1.71343120       0.00000000
Si       0.19328085       2.38304781      -1.92691641       0.00000000
Si      -1.39157325       3.11479461      -0.22639983       0.00000000
Si      -0.08402382      -2.79403541      -1.96894888       0.00000000
Si      -1.07557983       0.79148223      -3.20683423       0.00000000
Si      -0.10541259      -3.22171307       1.34822487       0.00000000
Si      -2.03413230      -0.71681864       2.86872463       0.00000000
