10
Lattice="16.28999089631971 0.0 0.0 0.0 16.28999089631971 0.0 0.0 0.0 34.25627252547053" Properties=species:S:1:pos:R:3:initial_magmoms:R:1 pbc="T T T"
Si      -1.70551576      -0.98572160       1.18578154       0.00000000
Si       1.28264202      -1.43535818      -1.31571565       0.00000000
Si      -1.42156314       1.30139181      -1.34521032       0.00000000
Si       2.05423416       0.64115159       1.72117312       0.00000000
Si       0.08118936      -0.32152943       3.07203572       0.00000000
Si       2.67954210       2.50723625       0.22777008       0.00000000
Si      -3.48632783       0.64218112       1.16611842       0.00000000
Si       2.63181240      -0.06167712      -2.69000956       0.00000000
Si      -2.71628077       2.62268348       0.03737361       0.00000000
Si      -0.08459397       2.65409060      -2.69336668       0.00000000
