10
Lattice="16.28999089631971 0.0 0.0 0.0 16.28999089631971 0.0 0.0 0.0 34.25627252547053" Properties=species:S:1:pos:R:3:initial_magmoms:R:1 pbc="T T T"
Si       1.55400084      -1.58196425       0.71167446       0.00000000
Si      -1.00839987       0.78292998       1.95226606       0.00000000
Si       0.31350105       1.82053782      -1.43061125       0.00000000
Si      -1.56123360      -1.48436598      -1.04087742       0.00000000
Si      -1.73105685      -1.38205012       2.50026396       0.00000000
Si      -2.86783821       0.15511338      -2.10179478       0.00000000
Si       0.11117925      -2.86942553       2.11330489       0.00000000
Si      -1.16460468       1.28940237      -3.19285767       0.00000000
Si       2.86545987      -1.79062938      -1.43814764       0.00000000
Si       2.58426189       2.30317794      -1.61751358       0.00000000
