10
Lattice="16.28999089631971 0.0 0.0 0.0 16.28999089631971 0.0 0.0 0.0 34.25627252547053" Properties=species:S:1:pos:R:3:initial_magmoms:R:1 pbc="T T T"
Si       0.27609921       0.72386244       2.21227615       0.00000000
Si       1.26490221      -1.92260444      -0.53518604       0.00000000
Si      -2.27613654      -0.31599342       0.55995334       0.00000000
Si       1.21293711       2.31971229       0.66731256       0.00000000
Si      -2.07339120      -1.23478200      -1.62426207       0.00000000
Si      -0.23183928      -2.73460556      -2.10124667       0.00000000
Si       3.18089943       1.46497599      -0.75233668       0.00000000
Si      -1.78624737       0.70361397      -3.22468176       0.00000000
Si       3.69154206      -0.69325353       0.66960773       0.00000000
Si       1.33068123      -0.82906326       3.62440956       0.00000000
