10
Lattice="16.28999089631971 0.0 0.0 0.0 16.28999089631971 0.0 0.0 0.0 34.25627252547053" Properties=species:S:1:pos:R:3:initial_magmoms:R:1 pbc="T T T"
Si      -1.49674149      -0.81200111      -1.56606063       0.00000000
Si       0.22312413      -1.85160026       1.42643199       0.00000000
Si      -1.26490221       1.92260444       0.53518604       0.00000000
Si       2.42663985       1.22935091       1.20479378       0.00000000
Si       1.42099299      -0.35402568       2.81636873       0.00000000
Si      -0.09604584      -0.12880177      -3.30792455       0.00000000
Si       3.49049088      -0.61283795       0.12130153       0.00000000
Si      -3.33829341       0.68782244      -1.08907602       0.00000000
Si       1.23339735      -3.52316603       0.04350549       0.00000000
Si       1.91599722       3.38758043      -0.21715063       0.00000000
