10
Lattice="16.28999089631971 0.0 0.0 0.0 16.28999089631971 0.0 0.0 0.0 34.25627252547053" Properties=species:S:1:pos:R:3:initial_magmoms:R:1 pbc="T T T"
Si      -1.35780408      -1.35614250      -1.35699448       0.00000000
Si       1.35729909       1.35860229      -1.35689171       0.00000000
Si      -1.35637056       1.35663120       1.36247549       0.00000000
Si       1.35749457      -1.35632169       1.36322913       0.00000000
Si      -0.00037467      -2.71349046      -2.71416025       0.00000000
Si      -2.71378857       0.00039096      -2.71422876       0.00000000
Si       2.71490769       0.00107514      -2.71409173       0.00000000
Si      -0.00024435       2.71564074      -2.71398896       0.00000000
Si      -2.71493050      -2.71515204       0.00095918       0.00000000
Si       2.71637379      -2.71474479       0.00058236       0.00000000
