10
Lattice="16.28999089631971 0.0 0.0 0.0 16.28999089631971 0.0 0.0 0.0 34.25627252547053" Properties=species:S:1:pos:R:3:initial_magmoms:R:1 pbc="T T T"
Si       0.16821054       0.24785235       2.28790921       0.00000000
Si       1.16870976      -1.89053595      -0.66618210       0.00000000
Si       0.61921548       2.28354849      -0.69557400       0.00000000
Si      -2.14031052      -1.25239149       0.16528661       0.00000000
Si       1.08155826      -3.17617533       1.29899858       0.00000000
Si      -1.85614776       1.20910896       2.93028319       0.00000000
Si       0.52338141      -1.86408099       3.15736815       0.00000000
Si       1.55351214       2.05193727       2.72258729       0.00000000
Si       0.24853653       3.50254548       1.34233279       0.00000000
Si      -1.05655311       1.07812107      -3.44296285       0.00000000
