10
Lattice="16.28999089631971 0.0 0.0 0.0 16.28999089631971 0.0 0.0 0.0 34.25627252547053" Properties=species:S:1:pos:R:3:initial_magmoms:R:1 pbc="T T T"
Si       1.59477471      -1.45451781      -0.91803436       0.00000000
Si       0.34583670       0.50736834       2.28386697       0.00000000
Si       0.03888423       1.91039346      -1.47863857       0.00000000
Si      -1.62566055      -1.63818756       0.73154311       0.00000000
Si       1.01571408      -3.55819212      -0.05878380       0.00000000
Si      -1.32442587      -3.43228671      -0.72027279       0.00000000
Si       1.98863433      -0.99406467       3.05329753       0.00000000
Si      -2.22466014       2.62676250      -1.67574928       0.00000000
Si       3.76533576      -0.78082857      -0.39706468       0.00000000
Si      -1.80366138       0.73187712       3.34581201       0.00000000
