10
Lattice="16.28999089631971 0.0 0.0 0.0 16.28999089631971 0.0 0.0 0.0 34.25627252547053" Properties=species:S:1:pos:R:3:initial_magmoms:R:1 pbc="T T T"
Si       1.50666210       0.95922036       1.55938206       0.00000000
Si       1.02275136      -1.84827969      -1.09274145       0.00000000
Si      -1.15276185      -1.56009330       1.40763697       0.00000000
Si      -0.50666787       1.48139631      -1.95308821       0.00000000
Si       1.50407199       2.90919852      -1.68691683       0.00000000
Si       3.10772475       2.02667148       0.28420599       0.00000000
Si       0.18106335       2.31614478       2.91693835       0.00000000
Si      -2.63902887      -2.68653051      -0.06440183       0.00000000
Si      -2.53397466      -0.38481867       2.89819673       0.00000000
Si      -0.67106655      -3.54126681      -1.48405107       0.00000000
