10
Lattice="16.28999089631971 0.0 0.0 0.0 16.28999089631971 0.0 0.0 0.0 34.25627252547053" Properties=species:S:1:pos:R:3:initial_magmoms:R:1 pbc="T T T"
Si       1.47374001       1.10379411      -1.49295770       0.00000000
Si       1.63813869      -1.02949542       1.38361162       0.00000000
Si      -1.01027322       1.67156577       1.38292649       0.00000000
Si      -0.73283823      -2.35673946      -0.54005044       0.00000000
Si       2.29561938      -1.07605224      -2.06031041       0.00000000
Si      -2.64666888      -1.58159610      -1.66420491       0.00000000
Si       0.17189208      -2.20237542       2.80702704       0.00000000
Si       2.25709353       2.91032809       0.07779604       0.00000000
Si      -1.23339735       3.52316603      -0.04350549       0.00000000
Si      -2.56057623       0.53571294       2.72698721       0.00000000
