10
Lattice="16.28999089631971 0.0 0.0 0.0 16.28999089631971 0.0 0.0 0.0 34.25627252547053" Properties=species:S:1:pos:R:3:initial_magmoms:R:1 pbc="T T T"
Si       1.35365013       1.35930276       1.36738784       0.00000000
Si      -1.35793440      -1.35760208       1.37064219       0.00000000
Si      -1.48470318       1.23634584      -1.38840750       0.00000000
Si       1.37005416      -1.33705225      -1.41832010       0.00000000
Si      -0.19007172      -2.57113590      -2.69658882       0.00000000
Si       2.69092881      -2.71827252       0.01437394       0.00000000
Si      -2.68835499      -2.73685751       0.02295514       0.00000000
Si       2.71476108       2.71531494      -0.02079014       0.00000000
Si       2.71005327      -0.00037467       2.72749965       0.00000000
Si      -0.00371412      -2.71541589       2.72849308       0.00000000
