10
Lattice="16.28999089631971 0.0 0.0 0.0 16.28999089631971 0.0 0.0 0.0 34.25627252547053" Properties=species:S:1:pos:R:3:initial_magmoms:R:1 pbc="T T T"
Si      -1.87673832      -1.54929303       0.30566889       0.00000000
Si      -1.68345747       0.83375478      -1.62124752       0.00000000
Si       0.24451290       0.87970887       2.38879399       0.00000000
Si       1.41402087      -1.98888520      -1.26854474       0.00000000
Si      -0.34968114      -3.18356496       1.10644396       0.00000000
Si      -3.26831157       1.56550158       0.07926906       0.00000000
Si       1.44226773       2.89105146      -1.82479840       0.00000000
Si      -3.28105035      -0.39423429       1.75827268       0.00000000
Si      -0.35319978       2.06166240      -3.11547270       0.00000000
Si       2.36817504      -0.59603481      -2.96745127       0.00000000
