10
Lattice="16.28999089631971 0.0 0.0 0.0 16.28999089631971 0.0 0.0 0.0 34.25627252547053" Properties=species:S:1:pos:R:3:initial_magmoms:R:1 pbc="T T T"
Si       0.95415417       1.39285039      -1.69890653       0.00000000
Si      -1.61324757      -1.22645325      -1.55455052       0.00000000
Si       1.95875847      -1.43153329       1.06215058       0.00000000
Si      -1.41402087       1.98888520       1.26854474       0.00000000
Si      -1.76370201      -1.19467977       2.37498870       0.00000000
Si      -0.23693805      -2.91985285       1.55242663       0.00000000
Si      -3.29075919       0.43959217       1.57421363       0.00000000
Si       1.78919586       3.24132556      -0.50332769       0.00000000
Si       2.37210093       0.02691760      -3.15904671       0.00000000
Si      -3.37478301      -2.35444324      -0.39473525       0.00000000
