10
Lattice="16.28999089631971 0.0 0.0 0.0 16.28999089631971 0.0 0.0 0.0 34.25627252547053" Properties=species:S:1:pos:R:3:initial_magmoms:R:1 pbc="T T T"
Si       0.83504169       1.84847517       1.19557884       0.00000000
Si      -1.31113323       1.32655986      -1.48915526       0.00000000
Si      -0.95415417      -1.39285039       1.69890653       0.00000000
Si       1.41794676      -1.36593279      -1.46014018       0.00000000
Si      -2.56740174      -2.61930363       0.14435601       0.00000000
Si      -0.92590731       3.48708627       1.14265286       0.00000000
Si      -2.72137482       2.65769721      -0.14802144       0.00000000
Si       2.68105707       2.72404638      -0.06580634       0.00000000
Si      -2.36817504       0.59603481       2.96745127       0.00000000
Si      -2.65611708      -0.01482390      -2.85584427       0.00000000
