10
Lattice="16.28999089631971 0.0 0.0 0.0 16.28999089631971 0.0 0.0 0.0 34.25627252547053" Properties=species:S:1:pos:R:3:initial_magmoms:R:1 pbc="T T T"
Si       0.24948135       2.20816977       0.62774654       0.00000000
Si       1.90954638      -0.97610887      -0.99473420       0.00000000
Si       0.04724100      -1.03880908       2.17924825       0.00000000
Si      -1.48278096      -0.20798958      -1.91759870       0.00000000
Si       0.04398300      -1.93316266      -2.74016077       0.00000000
Si      -0.91685007       2.28815367       2.66835958       0.00000000
Si      -3.27622851       0.21319700       1.57602921       0.00000000
Si      -0.26639037      -3.30807124       1.60819587       0.00000000
Si      -3.11525073      -1.79543071      -1.37014890       0.00000000
Si       2.48977989       2.88288528       0.87723512       0.00000000
