10
Lattice="16.28999089631971 0.0 0.0 0.0 16.28999089631971 0.0 0.0 0.0 34.25627252547053" Properties=species:S:1:pos:R:3:initial_magmoms:R:1 pbc="T T T"
Si       0.70833807      -2.17159451       0.60318478       0.00000000
Si      -1.32450732      -0.45781742      -1.90879483       0.00000000
Si      -1.31145903       0.20866513       2.14982210       0.00000000
Si       1.96056666       0.09210366      -1.63059948       0.00000000
Si       1.07764866       2.26409823       0.52696453       0.00000000
Si       1.45316574      -1.58587127       2.79229885       0.00000000
Si      -2.86545987       1.79062938       1.43814764       0.00000000
Si       0.48084822       0.41056339       3.65511206       0.00000000
Si      -1.23110046       1.56970440      -3.17699700       0.00000000
Si      -3.38646294      -1.39584842      -0.99456292       0.00000000
