10
Lattice="16.28999089631971 0.0 0.0 0.0 16.28999089631971 0.0 0.0 0.0 34.25627252547053" Properties=species:S:1:pos:R:3:initial_magmoms:R:1 pbc="T T T"
Si      -1.76966415      -0.64977715       1.38457080       0.00000000
Si      -0.27883593      -0.16375685      -2.32795481       0.00000000
Si       1.44459720      -1.82663747       0.85277612       0.00000000
Si       0.57775743       2.36832165       0.48832344       0.00000000
Si       2.76939774       1.16921475       0.21763022       0.00000000
Si       0.03358998      -1.50076887       2.72950642       0.00000000
Si      -2.55301767      -2.45631113      -0.18618295       0.00000000
Si       0.35223867       1.95835122      -3.09002028       0.00000000
Si      -0.75295638       3.31988571      -1.43434519       0.00000000
Si       0.69348159      -2.16019151      -3.19076803       0.00000000
