10
Lattice="16.28999089631971 0.0 0.0 0.0 16.28999089631971 0.0 0.0 0.0 34.25627252547053" Properties=species:S:1:pos:R:3:initial_magmoms:R:1 pbc="T T T"
Si      -1.35034326      -1.33421616       1.36586686       0.00000000
Si      -1.37986074       1.37147139      -1.34268905       0.00000000
Si       1.36692648       1.37942091       1.36446235       0.00000000
Si       1.24001109      -1.42944750      -1.47246216       0.00000000
Si       2.00111247       0.60025392      -2.63670060       0.00000000
Si       0.22120191       2.43892251      -2.61786512       0.00000000
Si      -2.71551042      -2.68354944      -0.01953294       0.00000000
Si       0.00676035      -2.69190621       2.72176514       0.00000000
Si       2.72499120      -2.69397504      -0.02693572       0.00000000
Si      -2.70852201       0.02015073       2.72255304       0.00000000
