10
Lattice="16.28999089631971 0.0 0.0 0.0 16.28999089631971 0.0 0.0 0.0 34.25627252547053" Properties=species:S:1:pos:R:3:initial_magmoms:R:1 pbc="T T T"
Si       0.07429869      -2.29845777       0.47434687       0.00000000
Si       1.53381753       0.70818983      -1.65855262       0.00000000
Si      -2.27621799       0.03566370      -0.85157715       0.00000000
Si       1.36399428       0.81050569       1.88258876       0.00000000
Si      -0.53652744      -2.05873413       2.69761446       0.00000000
Si       2.33264655      -2.61577068       0.46293953       0.00000000
Si       0.22721292       2.34766919      -2.71946997       0.00000000
Si       3.20623038      -0.67686972       1.49562969       0.00000000
Si      -0.03670137       0.12730635       3.62445268       0.00000000
Si      -3.12706424      -1.98326256       0.04480723       0.00000000
