10
Lattice="16.28999089631971 0.0 0.0 0.0 16.28999089631971 0.0 0.0 0.0 34.25627252547053" Properties=species:S:1:pos:R:3:initial_magmoms:R:1 pbc="T T T"
Si       1.49674149       0.81200111       1.56606063       0.00000000
Si       1.40069565       0.68319934      -1.74186392       0.00000000
Si      -1.84155192       1.49982356       0.47698461       0.00000000
Si      -0.49982607      -2.18604048      -0.92683823       0.00000000
Si       0.23183928       2.73460556       2.10124667       0.00000000
Si      -2.75107475      -1.69429425      -1.28735144       0.00000000
Si       1.71986562      -1.03959915       2.99249262       0.00000000
Si       0.03670137      -0.12730635      -3.62445268       0.00000000
Si      -3.66926386       0.36900760      -0.55697305       0.00000000
Si      -1.55440809       3.43821953      -1.12343509       0.00000000
