10
Lattice="16.28999089631971 0.0 0.0 0.0 16.28999089631971 0.0 0.0 0.0 34.25627252547053" Properties=species:S:1:pos:R:3:initial_magmoms:R:1 pbc="T T T"
Si      -0.51013764      -2.18649267      -0.87579635       0.00000000
Si       2.16686322       0.08281836       1.09143971       0.00000000
Si       0.66692889       1.79672184      -1.49480754       0.00000000
Si      -1.40752116      -0.46275003       1.99597709       0.00000000
Si       0.82057617      -3.13805673       1.04687227       0.00000000
Si       0.21714570      -1.82348631       3.13989744       0.00000000
Si      -2.92156263      -2.01759795      -0.88114033       0.00000000
Si       0.95586462       3.56741226      -0.00582357       0.00000000
Si       2.75690331       2.43432873       1.09589303       0.00000000
Si      -3.09094605       2.02779549      -1.39107949       0.00000000
