10
Lattice="16.28999089631971 0.0 0.0 0.0 16.28999089631971 0.0 0.0 0.0 34.25627252547053" Properties=species:S:1:pos:R:3:initial_magmoms:R:1 pbc="T T T"
Si       1.33651305       1.35037584       1.35743981       0.00000000
Si       1.35408996      -1.35713619      -1.35658341       0.00000000
Si      -1.35874890       1.35689184      -1.35672043       0.00000000
Si      -1.35079938      -1.36264221       1.37751400       0.00000000
Si       2.63070468      -0.03352482       2.75513077       0.00000000
Si       2.70987408      -2.71422351       0.00387096       0.00000000
Si       2.71233387       0.00070047      -2.71354363       0.00000000
Si      -0.04004082       2.68089417       2.74502516       0.00000000
Si      -0.00252495      -2.71459818      -2.71354363       0.00000000
Si      -0.00270414       2.71555929      -2.71357789       0.00000000
