10
Lattice="16.28999089631971 0.0 0.0 0.0 16.28999089631971 0.0 0.0 0.0 34.25627252547053" Properties=species:S:1:pos:R:3:initial_magmoms:R:1 pbc="T T T"
Si      -1.16846541      -1.55129670       1.29601828       0.00000000
Si       1.37655387      -1.33051833      -1.38758535       0.00000000
Si      -1.33693659       1.41011127      -1.35452803       0.00000000
Si       1.72840158       0.98373681       1.33959229       0.00000000
Si      -1.21332807       1.16716221       3.36047370       0.00000000
Si       3.34322928      -0.91720845       1.49131340       0.00000000
Si       2.67074550      -2.71441899       0.01010561       0.00000000
Si       2.77083126       2.63736729       0.04364252       0.00000000
Si      -2.67789681       0.03574026      -2.73961267       0.00000000
Si       0.04004082      -2.68089417      -2.74502516       0.00000000
