10
Lattice="16.28999089631971 0.0 0.0 0.0 16.28999089631971 0.0 0.0 0.0 34.25627252547053" Properties=species:S:1:pos:R:3:initial_magmoms:R:1 pbc="T T T"
Si       2.26119861       0.47394126       0.41467241       0.00000000
Si      -1.56007701       0.96073533       1.51429937       0.00000000
Si      -0.19166814      -2.32839486       0.58509746       0.00000000
Si      -0.17267400       1.23828435      -2.08706457       0.00000000
Si      -0.30784842       3.22443350      -0.71948489       0.00000000
Si       3.12315138      -1.53759681      -0.42491504       0.00000000
Si      -3.16009710      -0.88244559       1.59928923       0.00000000
Si      -2.47896333      -2.80295514       0.36253433       0.00000000
Si       1.29135717      -3.47490135      -0.76754647       0.00000000
Si       2.64349233       0.35955288       2.75537056       0.00000000
