10
Lattice="16.28999089631971 0.0 0.0 0.0 16.28999089631971 0.0 0.0 0.0 34.25627252547053" Properties=species:S:1:pos:R:3:initial_magmoms:R:1 pbc="T T T"
Si      -1.41100722       0.32586860       1.87673029       0.00000000
Si       1.04379804      -2.17565982      -0.01921778       0.00000000
Si      -1.44459720       1.82663747      -0.85277612       0.00000000
Si       2.20952673       0.51979339      -1.57818736       0.00000000
Si       3.12261381      -0.99676881       0.03915494       0.00000000
Si       1.32480054       2.99585222      -0.63514590       0.00000000
Si      -3.21426135       1.17686032       0.53179467       0.00000000
Si       0.14911866       1.55995225       3.15499902       0.00000000
Si       1.86805575       2.51150165       1.73083339       0.00000000
Si      -1.72343313       1.66288061      -3.18073094       0.00000000
