10
Lattice="16.28999089631971 0.0 0.0 0.0 16.28999089631971 0.0 0.0 0.0 34.25627252547053" Properties=species:S:1:pos:R:3:initial_magmoms:R:1 pbc="T T T"
Si       1.27154853      -1.46715695      -1.27758840       0.00000000
Si      -1.33760448      -1.34965718       1.36003644       0.00000000
Si       1.38214134       1.36277836       1.35458969       0.00000000
Si      -1.32087465       1.38122027      -1.43269404       0.00000000
Si       2.04696882       0.36706026      -2.61904697       0.00000000
Si       0.39806244       2.33276967      -2.85685966       0.00000000
Si      -2.69276958      -2.70444761       0.01210960       0.00000000
Si      -2.69464293       0.00285663       2.71411914       0.00000000
Si      -2.69092881       2.71827252      -0.01437394       0.00000000
Si       0.02091636      -2.71073555       2.71442744       0.00000000
