10
Lattice="16.28999089631971 0.0 0.0 0.0 16.28999089631971 0.0 0.0 0.0 34.25627252547053" Properties=species:S:1:pos:R:3:initial_magmoms:R:1 pbc="T T T"
Si      -1.56105441       1.36879331       1.07783996       0.00000000
Si      -0.95573430      -1.92519848       1.02179667       0.00000000
Si      -1.06207542      -0.22772557      -2.15160342       0.00000000
Si       2.43299851      -0.00533823       0.36787832       0.00000000
Si       1.02108019      -1.12131956      -3.12102222       0.00000000
Si      -3.52478133       0.82529375      -0.11236064       0.00000000
Si       2.56791392       0.36692736       2.72248452       0.00000000
Si      -3.38960691      -1.16085539      -1.47994031       0.00000000
Si      -0.13695003       3.57592541      -1.51796480       0.00000000
Si      -1.22119614       1.61327363       3.33666558       0.00000000
