10
Lattice="16.28999089631971 0.0 0.0 0.0 16.28999089631971 0.0 0.0 0.0 34.25627252547053" Properties=species:S:1:pos:R:3:initial_magmoms:R:1 pbc="T T T"
Si       1.06207542       0.22772557       2.15160342       0.00000000
Si      -0.62071416       1.52293695      -1.82743614       0.00000000
Si       2.08315561      -0.89359400      -0.96941880       0.00000000
Si      -2.32753149      -0.93312983       0.67166311       0.00000000
Si      -1.48328595      -1.83753434      -1.54752798       0.00000000
Si       0.72993861      -2.00339912      -2.51862533       0.00000000
Si      -2.46270591       1.05301932       2.03924279       0.00000000
Si       1.33292925       2.71865553      -1.47935796       0.00000000
Si       0.10634112      -1.69747292       3.17340009       0.00000000
Si      -0.49897899       1.59651888       3.22944338       0.00000000
