10
Lattice="16.28999089631971 0.0 0.0 0.0 16.28999089631971 0.0 0.0 0.0 34.25627252547053" Properties=species:S:1:pos:R:3:initial_magmoms:R:1 pbc="T T T"
Si      -2.26755171      -0.39361527       0.32303683       0.00000000
Si       0.88467732      -2.04620319      -0.75158304       0.00000000
Si       1.31313690       0.33291873       1.92407313       0.00000000
Si       0.41285376       1.41437925      -1.88152682       0.00000000
Si      -2.30182587      -0.66218850      -2.04304524       0.00000000
Si       3.19581360      -1.50881238      -0.86007271       0.00000000
Si       3.35766289      -0.80249427       1.34743698       0.00000000
Si       0.43306965      -0.09067014      -3.79134934       0.00000000
Si       0.14960736      -1.18275174       3.63068733       0.00000000
Si       0.54481905      -2.29068351      -3.01040866       0.00000000
