10
Lattice="16.28999089631971 0.0 0.0 0.0 16.28999089631971 0.0 0.0 0.0 34.25627252547053" Properties=species:S:1:pos:R:3:initial_magmoms:R:1 pbc="T T T"
Si      -1.90114074       0.75311928       1.08606147       0.00000000
Si       1.88475058       0.31506489       1.33489917       0.00000000
Si       0.10774206      -2.15119224      -0.93581338       0.00000000
Si       0.32781996       1.82221569      -1.51635475       0.00000000
Si       3.36430269      -0.05457150      -0.54217433       0.00000000
Si       2.23791110       0.95278581      -2.56802291       0.00000000
Si      -1.31110065       3.10462965       1.09051479       0.00000000
Si       0.81507015       3.57070284       0.05967446       0.00000000
Si      -1.05578748      -3.66686271       0.77080082       0.00000000
Si      -1.20539484      -2.48411097      -2.85988651       0.00000000
