10
Lattice="16.28999089631971 0.0 0.0 0.0 16.28999089631971 0.0 0.0 0.0 34.25627252547053" Properties=species:S:1:pos:R:3:initial_magmoms:R:1 pbc="T T T"
Si      -1.35917244      -1.35925389      -1.33856117       0.00000000
Si      -1.35571896       1.35697329       1.35565849       0.00000000
Si       1.35851641      -1.35878148       1.35449377       0.00000000
Si       1.36872193       1.36194174      -1.34789944       0.00000000
Si      -0.10508679       2.60055189      -2.63635736       0.00000000
Si       2.55263064      -0.14986800      -2.69133185       0.00000000
Si      -2.73800691      -0.03002247      -2.65659255       0.00000000
Si      -2.71298547      -0.00013032       2.71227615       0.00000000
Si      -2.71086777      -2.71529865      -0.00253497       0.00000000
Si       0.00148239       2.71477737       2.71227615       0.00000000
