10
Lattice="16.28999089631971 0.0 0.0 0.0 16.28999089631971 0.0 0.0 0.0 34.25627252547053" Properties=species:S:1:pos:R:3:initial_magmoms:R:1 pbc="T T T"
Si      -1.36006839      -1.35358497       1.37730504       0.00000000
Si       1.35711894       1.36373364       1.38302584       0.00000000
Si      -1.48354659       1.32333444      -1.32811300       0.00000000
Si       1.46557939      -1.36037790      -1.42276999       0.00000000
Si       2.70404945       2.68954416       0.00564544       0.00000000
Si      -2.71538010      -2.71057455      -0.01011931       0.00000000
Si      -2.72174949       2.71886616       0.04525256       0.00000000
Si      -0.00230396      -2.70935280       2.73738259       0.00000000
Si       2.73231260      -2.71696023       0.00246303       0.00000000
Si       2.71113560       0.00540828       2.73885561       0.00000000
