10
Lattice="16.28999089631971 0.0 0.0 0.0 16.28999089631971 0.0 0.0 0.0 34.25627252547053" Properties=species:S:1:pos:R:3:initial_magmoms:R:1 pbc="T T T"
Si      -1.05241545      -1.53318222       1.37986539       0.00000000
Si       1.62118473       1.07173539       1.40046027       0.00000000
Si       0.97050023      -1.71639585      -1.62028834       0.00000000
Si      -1.86321762       2.00753073       0.16538359       0.00000000
Si       2.55890555       1.33709949      -1.76940598       0.00000000
Si      -0.58241637      -0.94599288      -3.20094215       0.00000000
Si      -2.29061835      -0.13765050       2.75323096       0.00000000
Si      -2.70858717      -1.41206607      -2.17010182       0.00000000
Si      -3.00812769      -2.27286225       0.08809420       0.00000000
Si       0.43727602       2.58354513       2.74389269       0.00000000
