10
Lattice="16.28999089631971 0.0 0.0 0.0 16.28999089631971 0.0 0.0 0.0 34.25627252547053" Properties=species:S:1:pos:R:3:initial_magmoms:R:1 pbc="T T T"
Si       0.86195277      -2.01153807      -0.83958745       0.00000000
Si      -2.26119861      -0.47394126      -0.41467241       0.00000000
Si       0.38229372      -0.11438838       2.34069815       0.00000000
Si       0.95573430       1.92519848      -1.02179667       0.00000000
Si      -0.60532011       3.29399180       0.05604329       0.00000000
Si      -2.43387261       0.76434309      -2.50173698       0.00000000
Si      -0.10634112       1.69747292      -3.17340009       0.00000000
Si      -2.45286675      -2.80233612       0.17042505       0.00000000
Si       2.67280197       0.27319959       2.59707224       0.00000000
Si       0.77478498      -3.72930228       0.62003888       0.00000000
