10
Lattice="16.28999089631971 0.0 0.0 0.0 16.28999089631971 0.0 0.0 0.0 34.25627252547053" Properties=species:S:1:pos:R:3:initial_magmoms:R:1 pbc="T T T"
Si       2.07881577       1.17889101       0.05837272       0.00000000
Si       0.87105888      -0.92738970       2.03927126       0.00000000
Si      -1.04379804       2.17565982       0.01921778       0.00000000
Si      -0.58484358      -1.24835157      -2.01968244       0.00000000
Si       1.16572869       2.69545321      -1.55896958       0.00000000
Si       3.62460223      -0.31715001      -1.03464278       0.00000000
Si      -2.38075092      -0.16790103      -2.95241275       0.00000000
Si       1.69774380       0.88723485       3.32932244       0.00000000
Si      -0.93517632      -1.74333951       3.30908725       0.00000000
Si      -1.77534936      -3.21390297      -1.39793075       0.00000000
