10
Lattice="16.28999089631971 0.0 0.0 0.0 16.28999089631971 0.0 0.0 0.0 34.25627252547053" Properties=species:S:1:pos:R:3:initial_magmoms:R:1 pbc="T T T"
Si      -1.53086904      -1.37458278      -1.06759733       0.00000000
Si       2.02435830      -0.96125661      -0.64237398       0.00000000
Si       0.52245288      -0.48294963       2.24166321       0.00000000
Si      -0.19536597       2.09652300      -1.09092586       0.00000000
Si       2.10468429       2.29343652      -1.58795040       0.00000000
Si       3.40965990       0.84282831      -0.20769590       0.00000000
Si       1.85614776      -1.20910896      -2.93028319       0.00000000
Si      -3.42775483       0.01353699      -1.39210718       0.00000000
Si      -0.28416276      -2.46150045      -2.76499658       0.00000000
Si      -0.30514428      -2.61847089       2.79784837       0.00000000
