10
Lattice="16.28999089631971 0.0 0.0 0.0 16.28999089631971 0.0 0.0 0.0 34.25627252547053" Properties=species:S:1:pos:R:3:initial_magmoms:R:1 pbc="T T T"
Si      -2.00123302      -1.03980699      -0.63939368       0.00000000
Si       1.67255946       0.59118039      -1.54403383       0.00000000
Si      -0.78919837       2.19222675       0.33088152       0.00000000
Si      -0.28714383      -1.93839597       1.60041969       0.00000000
Si       1.15442343       3.29864355       1.21996932       0.00000000
Si       2.09372112       2.91001302      -1.00141417       0.00000000
Si       1.78624737      -0.70361397       3.22468176       0.00000000
Si      -2.11485577      -3.06921193       0.56646204       0.00000000
Si       0.83688246       0.37115136      -3.74078705       0.00000000
Si       3.67776072      -0.59004009      -1.16642673       0.00000000
