10
Lattice="16.28999089631971 0.0 0.0 0.0 16.28999089631971 0.0 0.0 0.0 34.25627252547053" Properties=species:S:1:pos:R:3:initial_magmoms:R:1 pbc="T T T"
Si      -1.18390870       1.51180974       1.34343242       0.00000000
Si       1.51399586      -1.23870789       1.31316356       0.00000000
Si       1.91557694       0.83725713      -1.10854730       0.00000000
Si      -1.62118473      -1.07173539      -1.40046027       0.00000000
Si       0.93772082       0.26536410      -3.16986625       0.00000000
Si      -2.55263064       0.14986800       2.69133185       0.00000000
Si       0.16706535      -2.56451841       2.69054396       0.00000000
Si      -2.67360018      -2.60491761      -0.02059488       0.00000000
Si      -3.48440235       0.93579534      -1.23507668       0.00000000
Si      -2.65771743       2.75041989       0.05497450       0.00000000
