10
Lattice="16.28999089631971 0.0 0.0 0.0 16.28999089631971 0.0 0.0 0.0 34.25627252547053" Properties=species:S:1:pos:R:3:initial_magmoms:R:1 pbc="T T T"
Si      -1.35764297       1.35790182      -1.35658341       0.00000000
Si      -1.35761039      -1.35826020       1.35730279       0.00000000
Si       1.35676040       1.35812988       1.35839899       0.00000000
Si       1.35881457      -1.35799956      -1.35747407       0.00000000
Si       0.00059739      -2.71132389       2.71662670       0.00000000
Si       2.71455471       0.00013032      -2.71433153       0.00000000
Si      -0.00064153       2.71406061      -2.71487963       0.00000000
Si       2.71479906      -2.71453302      -0.00023979       0.00000000
Si      -2.71489319      -2.71446786      -0.00030831       0.00000000
Si      -2.71463255       2.71516833       0.00003426       0.00000000
