10
Lattice="16.28999089631971 0.0 0.0 0.0 16.28999089631971 0.0 0.0 0.0 34.25627252547053" Properties=species:S:1:pos:R:3:initial_magmoms:R:1 pbc="T T T"
Si      -1.29109164      -1.33265232       1.48733967       0.00000000
Si      -1.57534237       1.23670422      -1.29296947       0.00000000
Si       1.27262367      -1.59861915      -1.26316650       0.00000000
Si       1.09020825       1.88095743       1.11394609       0.00000000
Si      -3.02084108       1.77170040       0.47352472       0.00000000
Si      -3.10800887       0.05393619       1.93315105       0.00000000
Si      -0.28533564       3.05294148      -2.04181201       0.00000000
Si       0.19679949      -1.61477883      -3.41309136       0.00000000
Si       3.35375262       1.16458839       1.31105679       0.00000000
Si       1.46798964      -3.69514215      -0.17224063       0.00000000
