10
Lattice="16.28999089631971 0.0 0.0 0.0 16.28999089631971 0.0 0.0 0.0 34.25627252547053" Properties=species:S:1:pos:R:3:initial_magmoms:R:1 pbc="T T T"
Si       1.35698632       1.35772426      -1.35582977       0.00000000
Si      -1.35698776       1.35690976       1.35767961       0.00000000
Si      -1.35829169      -1.35855215      -1.35696023       0.00000000
Si       1.35835468      -1.35820654       1.35795366       0.00000000
Si       0.00281980       2.70946846      -2.71330384       0.00000000
Si       2.70876310       0.00476320      -2.71727757       0.00000000
Si      -2.71112256       0.00019385      -2.71583880       0.00000000
Si      -2.71429911       2.71385047       0.00003426       0.00000000
Si       0.00020200       2.71331290       2.71542773       0.00000000
Si      -2.71421766      -0.00085848       2.71508517       0.00000000
