10
Lattice="16.28999089631971 0.0 0.0 0.0 16.28999089631971 0.0 0.0 0.0 34.25627252547053" Properties=species:S:1:pos:R:3:initial_magmoms:R:1 pbc="T T T"
Si       2.18117887      -0.73490706      -0.13476425       0.00000000
Si      -0.79912061       0.31643325      -2.16866306       0.00000000
Si       0.19236535       2.09295549       1.05656680       0.00000000
Si      -1.09765604      -1.83609477       1.01542500       0.00000000
Si      -2.61603783       1.70302176      -1.72285168       0.00000000
Si       2.00317804       1.63515762       2.47950465       0.00000000
Si      -1.89961992      -2.99763693      -1.00018095       0.00000000
Si      -3.00774717      -0.96666489       2.06709315       0.00000000
Si      -1.96199433      -1.55320263      -2.95292660       0.00000000
Si       2.48241355      -2.52900621      -1.58658015       0.00000000
