10
Lattice="16.28999089631971 0.0 0.0 0.0 16.28999089631971 0.0 0.0 0.0 34.25627252547053" Properties=species:S:1:pos:R:3:initial_magmoms:R:1 pbc="T T T"
Si       0.64431837       1.08194922      -2.04760132       0.00000000
Si       0.61349769      -2.29024368      -0.59674460       0.00000000
Si      -2.32644006      -0.54178911       0.69667020       0.00000000
Si      -0.73803474       2.51170623       0.54755257       0.00000000
Si       0.49943511      -2.34338166       2.04794388       0.00000000
Si       1.09695231       2.97012312      -0.74791762       0.00000000
Si       2.13172569       1.46189718       2.47284526       0.00000000
Si       3.01078296       2.19497976       0.37623685       0.00000000
Si       1.17983583      -0.46566594       3.52723474       0.00000000
Si      -1.33012411      -3.39666048      -1.48583239       0.00000000
