10
Lattice="16.28999089631971 0.0 0.0 0.0 16.28999089631971 0.0 0.0 0.0 34.25627252547053" Properties=species:S:1:pos:R:3:initial_magmoms:R:1 pbc="T T T"
Si      -1.55291660       0.77040297      -1.58065381       0.00000000
Si       2.32644006       0.54178911      -0.69667020       0.00000000
Si      -0.48323617      -2.48523498      -0.30542910       0.00000000
Si      -0.97050023       1.71639585       1.62028834       0.00000000
Si       1.58840532       3.05349534      -0.14911764       0.00000000
Si       2.82587517      -1.80159255       1.35127368       0.00000000
Si      -2.02291568       0.18321363       3.00015373       0.00000000
Si       2.93993775      -1.74845457      -1.29341480       0.00000000
Si       0.99631595      -2.85487137      -2.18250260       0.00000000
Si      -3.67908740       0.30432978      -0.54981348       0.00000000
