10
Lattice="16.28999089631971 0.0 0.0 0.0 16.28999089631971 0.0 0.0 0.0 34.25627252547053" Properties=species:S:1:pos:R:3:initial_magmoms:R:1 pbc="T T T"
Si      -1.34883681      -1.35324288      -1.34276099       0.00000000
Si       1.35634938      -1.35834165       1.35997478       0.00000000
Si      -1.35922185       1.35655658       1.35983775       0.00000000
Si       1.34585862       1.36597435      -1.38496817       0.00000000
Si      -2.71205272       2.71530258       0.00095918       0.00000000
Si       2.70783294       2.71987192      -0.00047959       0.00000000
Si       2.71654809      -2.71453302      -0.00202112       0.00000000
Si       2.71438152      -0.00037467       2.71707203       0.00000000
Si      -0.00093016       2.71510873       2.71679798       0.00000000
Si      -2.71755874      -2.71518462       0.00513844       0.00000000
