10
Lattice="16.28999089631971 0.0 0.0 0.0 16.28999089631971 0.0 0.0 0.0 34.25627252547053" Properties=species:S:1:pos:R:3:initial_magmoms:R:1 pbc="T T T"
Si      -1.35743267      -1.35713619       1.35733704       0.00000000
Si       1.35803214       1.35796698       1.35709725       0.00000000
Si      -1.35634938       1.35834165      -1.35997478       0.00000000
Si       1.36019871      -1.35619137      -1.36199590       0.00000000
Si      -2.70518619       0.00509877      -2.70273577       0.00000000
Si      -2.71492999       0.00032580       2.71440004       0.00000000
Si       0.00074934      -2.71440270       2.71518793       0.00000000
Si       2.71495656       0.00083079       2.71481111       0.00000000
Si       0.00107514       2.71524384       2.71477686       0.00000000
Si       2.71544526      -2.71497285      -0.00013703       0.00000000
