10
Lattice="16.28999089631971 0.0 0.0 0.0 16.28999089631971 0.0 0.0 0.0 34.25627252547053" Properties=species:S:1:pos:R:3:initial_magmoms:R:1 pbc="T T T"
Si       1.70551576       0.98572160      -1.18578154       0.00000000
Si      -1.10969472      -1.91301615      -0.94280166       0.00000000
Si      -1.78081207       1.62790272      -0.01966311       0.00000000
Si       1.78670512       0.66419217       1.88625419       0.00000000
Si       0.28395262       2.28711341      -2.53099185       0.00000000
Si      -2.43677779      -0.45675531      -2.50766332       0.00000000
Si      -1.71912184       2.47789538       2.18836042       0.00000000
Si      -1.01076502       3.60840509      -1.14840792       0.00000000
Si       2.98815778      -0.44963658      -2.50149719       0.00000000
Si       0.57197611       2.40835011       3.08775936       0.00000000
