10
Lattice="16.28999089631971 0.0 0.0 0.0 16.28999089631971 0.0 0.0 0.0 34.25627252547053" Properties=species:S:1:pos:R:3:initial_magmoms:R:1 pbc="T T T"
Si      -1.35321700      -1.10980512      -1.54920653       0.00000000
Si       1.62064372      -1.53417591       0.78789471       0.00000000
Si       0.96679733       2.05380803      -0.78162581       0.00000000
Si      -2.08315561       0.89359400       0.96941880       0.00000000
Si      -1.02108019       1.12131956       3.12102222       0.00000000
Si       0.33063699      -3.35041317       1.53673724       0.00000000
Si      -0.75022636       3.61224953      -0.50993916       0.00000000
Si      -2.70386977       2.41653095      -0.85801734       0.00000000
Si      -3.56644156      -0.94394034      -0.57810918       0.00000000
Si      -2.39067823       0.97166822      -2.78647528       0.00000000
