10
Lattice="16.28999089631971 0.0 0.0 0.0 16.28999089631971 0.0 0.0 0.0 34.56409401068381" Properties=species:S:1:pos:R:3:initial_magmoms:R:1 pbc="T T T"
Si       1.23385347      -1.50276879      -1.33006164       0.00000000
Si      -1.35446463      -1.36396496       1.36561429       0.00000000
Si       1.36708938       1.35101115       1.36813747       0.00000000
Si      -1.28464569       1.41398829      -1.48086833       0.00000000
Si      -2.69623935       2.70785412      -0.00577566       0.00000000
Si       2.71637379       2.69390988      -0.01847452       0.00000000
Si      -2.69628822      -2.72279719      -0.01650436       0.00000000
Si       0.00654858       2.70435177       2.72695646       0.00000000
Si      -2.70658350      -0.00946449       2.72782056       0.00000000
Si       0.00851967      -2.72437607       2.72488261       0.00000000
