10
Lattice="16.28999089631971 0.0 0.0 0.0 16.28999089631971 0.0 0.0 0.0 34.56409401068381" Properties=species:S:1:pos:R:3:initial_magmoms:R:1 pbc="T T T"
Si       1.35659862      -1.35304805       1.36030524       0.00000000
Si      -1.35780408      -1.35605450      -1.35643406       0.00000000
Si       1.35700587       1.35820807      -1.35608842       0.00000000
Si      -1.35607734       1.35705148       1.36230996       0.00000000
Si      -2.71413717      -2.71183932       0.00072585       0.00000000
Si      -0.00032580      -2.71390815      -2.71380136       0.00000000
Si       2.71402803      -2.71389186       0.00179733       0.00000000
Si      -2.71504615       0.00152800      -2.71352484       0.00000000
Si       2.71505430       0.00116962      -2.71369767       0.00000000
Si      -0.00055386       2.71606102      -2.71345572       0.00000000
