10
Lattice="16.28999089631971 0.0 0.0 0.0 16.28999089631971 0.0 0.0 0.0 34.56409401068381" Properties=species:S:1:pos:R:3:initial_magmoms:R:1 pbc="T T T"
Si       1.33436277      -1.66037521      -1.34150237       0.00000000
Si      -1.22794020       1.33627522       2.00890083       0.00000000
Si      -1.84296915       0.93758561      -1.82298047       0.00000000
Si       2.51338410       1.26168656       0.65585405       0.00000000
Si       0.92176965      -1.40315611       2.41060496       0.00000000
Si       0.14700096       3.85438342       0.09204423       0.00000000
Si       2.24466426      -0.41375038      -3.13092108       0.00000000
Si       2.80447011      -0.07811218       2.73744321       0.00000000
Si       3.12717501       1.59253321      -1.86929638       0.00000000
Si      -2.22156504       3.17847874       0.99306154       0.00000000
