10
Lattice="16.28999089631971 0.0 0.0 0.0 16.28999089631971 0.0 0.0 0.0 34.56409401068381" Properties=species:S:1:pos:R:3:initial_magmoms:R:1 pbc="T T T"
Si      -0.99362484       1.84220352      -1.01583929       0.00000000
Si      -1.81413585      -1.16697162       0.95683835       0.00000000
Si       1.60497225       1.02219750       1.43250968       0.00000000
Si       1.22794020      -1.33627522      -2.00890083       0.00000000
Si       1.37494116       2.51810820      -1.91685660       0.00000000
Si       2.14970985      -2.73943133       0.40170413       0.00000000
Si       2.93848794       1.89069885      -0.31767877       0.00000000
Si      -2.49706152       0.73710621      -2.43400486       0.00000000
Si      -0.99805572      -2.01858254       3.00344863       0.00000000
Si      -2.06488782      -3.16150523      -0.35590667       0.00000000
