10
Lattice="16.28999089631971 0.0 0.0 0.0 16.28999089631971 0.0 0.0 0.0 34.56409401068381" Properties=species:S:1:pos:R:3:initial_magmoms:R:1 pbc="T T T"
Si      -1.34928441      -1.34289873       1.38661199       0.00000000
Si       1.36808307       1.36917450       1.38713045       0.00000000
Si      -1.19071755       1.43845587      -1.55031454       0.00000000
Si       1.27972611      -1.50096060      -1.44915575       0.00000000
Si       2.37180771       0.13116708      -2.76493347       0.00000000
Si       0.71534277       2.15124111      -2.96426471       0.00000000
Si      -2.68613955       2.71176372       0.00848895       0.00000000
Si      -2.71637379      -2.69390988       0.01847452       0.00000000
Si       2.72510523      -2.70528030       0.01578197       0.00000000
Si       2.72365542       2.71316466       0.03840764       0.00000000
