10
Lattice="16.28999089631971 0.0 0.0 0.0 16.28999089631971 0.0 0.0 0.0 34.56409401068381" Properties=species:S:1:pos:R:3:initial_magmoms:R:1 pbc="T T T"
Si       1.44306594      -1.43816265       1.28087691       0.00000000
Si      -2.34079155       0.03704346      -0.58969834       0.00000000
Si       0.88778871       2.12146299      -0.74091633       0.00000000
Si      -1.60318035       0.97487505       1.53011873       0.00000000
Si      -1.17933084      -1.74322548      -2.43096322       0.00000000
Si       2.97755136       1.45334493      -1.75208947       0.00000000
Si      -0.99779508       2.93241177      -2.18341504       0.00000000
Si      -0.25832682       2.37078144       2.99987958       0.00000000
Si       2.72979675      -0.11267793       2.80121542       0.00000000
Si       3.35336166      -2.01363948      -0.18802878       0.00000000
