10
Lattice="16.28999089631971 0.0 0.0 0.0 16.28999089631971 0.0 0.0 0.0 34.56409401068381" Properties=species:S:1:pos:R:3:initial_magmoms:R:1 pbc="T T T"
Si       1.07714367      -0.63752544      -1.98750564       0.00000000
Si      -0.48076677      -1.78722477       1.47730477       0.00000000
Si      -1.72517616       1.38904830      -0.87046263       0.00000000
Si       1.63344717       1.20805011       1.27655640       0.00000000
Si       1.26618912       1.41887529      -3.10866179       0.00000000
Si      -2.57052942      -1.11910671       2.48847790       0.00000000
Si       2.96096814      -1.82840589      -1.41080341       0.00000000
Si      -1.07761608       1.89387540      -3.10178353       0.00000000
Si      -3.66673239       0.08022825      -1.12478538       0.00000000
Si       2.54695779      -0.46586142       2.85032961       0.00000000
