10
Lattice="16.28999089631971 0.0 0.0 0.0 16.28999089631971 0.0 0.0 0.0 34.56409401068381" Properties=species:S:1:pos:R:3:initial_magmoms:R:1 pbc="T T T"
Si      -1.35830907      -1.35687555      -1.35691796       0.00000000
Si      -1.35747828       1.35785365       1.35736729       0.00000000
Si       1.35747828      -1.35736425       1.35788576       0.00000000
Si       1.35757602       1.35736755      -1.35871529       0.00000000
Si       0.00032580       2.71390815       2.71380136       0.00000000
Si       0.00074934      -2.71389771       2.71438895       0.00000000
Si      -2.71381137       0.00206883       2.71452720       0.00000000
Si      -2.71538336      -2.71451673      -0.00010369       0.00000000
Si      -0.00099369      -2.71099809      -2.71891685       0.00000000
Si       2.71435383       0.00001629       2.71559869       0.00000000
