10
Lattice="16.28999089631971 0.0 0.0 0.0 16.28999089631971 0.0 0.0 0.0 34.56409401068381" Properties=species:S:1:pos:R:3:initial_magmoms:R:1 pbc="T T T"
Si      -1.65099150      -1.62111564      -0.35957047       0.00000000
Si      -1.31227353       1.94075802       0.13075604       0.00000000
Si       1.54448748       0.03806973       1.84475586       0.00000000
Si       0.85390551       0.42842700      -2.31631405       0.00000000
Si       0.57042693       3.26580195       0.45759430       0.00000000
Si       2.50900209       2.06081532       1.03464217       0.00000000
Si      -0.16891101      -3.41602929       0.24305484       0.00000000
Si       2.93604444       1.49336946      -1.19394817       0.00000000
Si      -2.38264056       1.66288320       2.24583783       0.00000000
Si       2.19730923      -3.06739071      -0.21609484       0.00000000
