10
Lattice="16.28999089631971 0.0 0.0 0.0 16.28999089631971 0.0 0.0 0.0 34.56409401068381" Properties=species:S:1:pos:R:3:initial_magmoms:R:1 pbc="T T T"
Si       0.58712418       2.24567424       0.26759537       0.00000000
Si      -2.02499361      -0.46587445      -1.11915143       0.00000000
Si      -0.32962815      -0.63950956       2.30587569       0.00000000
Si       1.64046816      -1.03410060      -1.45642804       0.00000000
Si      -1.23494490       3.01493691       1.59516839       0.00000000
Si      -1.35076680      -1.72586848      -2.93034553       0.00000000
Si      -3.13492905      -1.87727149       0.33261046       0.00000000
Si       2.69500131       2.11732533       1.44160004       0.00000000
Si      -0.99859329       1.43262405       3.30785477       0.00000000
Si       0.65119275       3.19798764      -1.90320377       0.00000000
