10
Lattice="16.28999089631971 0.0 0.0 0.0 16.28999089631971 0.0 0.0 0.0 34.56409401068381" Properties=species:S:1:pos:R:3:initial_magmoms:R:1 pbc="T T T"
Si      -1.09503009      -1.65700970       1.47334169       0.00000000
Si       1.61448561       1.10923497       1.50962709       0.00000000
Si      -1.97172531       1.56915054       0.27698613       0.00000000
Si       0.16127100      -0.66589352      -2.61294328       0.00000000
Si      -2.26685124      -1.21255334      -2.64909734       0.00000000
Si      -3.33728343       0.57301867      -1.51629309       0.00000000
Si      -2.47458132      -0.25252986       2.90001694       0.00000000
Si       0.24423597       2.48095071       2.89778410       0.00000000
Si       2.79972972       2.62001844       0.09760906       0.00000000
Si       3.69172125       0.76285093      -1.18153965       0.00000000
