10
Lattice="16.28999089631971 0.0 0.0 0.0 16.28999089631971 0.0 0.0 0.0 34.56409401068381" Properties=species:S:1:pos:R:3:initial_magmoms:R:1 pbc="T T T"
Si      -1.21779153       1.39287645       1.45195199       0.00000000
Si      -1.56963924      -1.18912113      -1.35138913       0.00000000
Si       0.91642653       1.73752398      -1.41384648       0.00000000
Si       1.49481927      -1.30015377       1.41595692       0.00000000
Si      -2.55640599       2.59169013      -0.01472777       0.00000000
Si      -3.22610418       0.83095290      -1.55072037       0.00000000
Si      -0.01037673      -2.43165717      -2.78037326       0.00000000
Si      -0.74140677       3.48594597      -1.24878990       0.00000000
Si      -2.57336388       0.04888629       2.80067480       0.00000000
Si       0.13668939      -2.66677074       2.79842813       0.00000000
