10
Lattice="16.28999089631971 0.0 0.0 0.0 16.28999089631971 0.0 0.0 0.0 34.56409401068381" Properties=species:S:1:pos:R:3:initial_magmoms:R:1 pbc="T T T"
Si       1.32625035      -1.28650275      -1.39884423       0.00000000
Si      -1.39955535       1.42159572      -1.36286299       0.00000000
Si      -1.03731462      -1.73827332       1.33960134       0.00000000
Si       1.41990156       1.39536882       1.39746167       0.00000000
Si      -0.34197597       2.35247148       2.58159362       0.00000000
Si      -2.28141450       0.98741835       2.70267171       0.00000000
Si       2.71441899      -2.50721019       0.04012894       0.00000000
Si      -0.04217481      -2.65719222      -2.73706301       0.00000000
Si       2.66504400       0.06357987      -2.74345737       0.00000000
Si       0.78519429      -3.46191822       1.44588599       0.00000000
