10
Lattice="16.28999089631971 0.0 0.0 0.0 16.28999089631971 0.0 0.0 0.0 34.56409401068381" Properties=species:S:1:pos:R:3:initial_magmoms:R:1 pbc="T T T"
Si       0.66034773      -2.20903803       0.39703797       0.00000000
Si      -0.41057316       1.35273789       1.93742224       0.00000000
Si      -1.72729386       0.16166196      -1.71282464       0.00000000
Si       2.09323242       1.19216736      -0.55700069       0.00000000
Si      -2.78490582       0.95219937       1.67476955       0.00000000
Si       0.89736723       2.88098424      -1.65582841       0.00000000
Si      -0.47410416       1.60477677      -3.09701368       0.00000000
Si      -3.48917139       1.11876462      -0.52869268       0.00000000
Si       1.26772038      -2.14218387       2.74145265       0.00000000
Si       1.52676396      -3.03593472      -1.69049622       0.00000000
