10
Lattice="16.28999089631971 0.0 0.0 0.0 16.28999089631971 0.0 0.0 0.0 34.56409401068381" Properties=species:S:1:pos:R:3:initial_magmoms:R:1 pbc="T T T"
Si      -0.99611721       1.70604681       1.57069700       0.00000000
Si       1.98457812      -1.17219582       1.24482654       0.00000000
Si       0.29784636      -0.83732718      -2.65777293       0.00000000
Si      -1.53748278       1.91949468      -1.60788799       0.00000000
Si      -1.93607790      -0.02195240       2.89850303       0.00000000
Si       1.99793592       0.80372742      -2.85565248       0.00000000
Si      -2.17926317      -2.33590033      -1.72533684       0.00000000
Si      -1.37402892       0.49379388      -3.56476983       0.00000000
Si      -3.41629712      -1.24034341       1.44346650       0.00000000
Si       3.96946575      -0.62835743      -0.07856423       0.00000000
