10
Lattice="16.28999089631971 0.0 0.0 0.0 16.28999089631971 0.0 0.0 0.0 34.56409401068381" Properties=species:S:1:pos:R:3:initial_magmoms:R:1 pbc="T T T"
Si      -1.62667053       1.18200240       1.27182111       0.00000000
Si      -0.56018052      -2.29493520      -0.47411594       0.00000000
Si       1.63926270      -0.34324659       1.73418526       0.00000000
Si       0.46278261       1.19304702      -2.04813110       0.00000000
Si       1.26188856      -3.06419787      -1.80168897       0.00000000
Si      -0.57720357       2.30141862       3.02809284       0.00000000
Si      -3.02679603      -0.31785048       2.39688300       0.00000000
Si      -1.57988565       2.12980347      -2.87991649       0.00000000
Si       1.83541059       3.07377639      -1.64162256       0.00000000
Si       1.53802035      -2.56275909       2.64543354       0.00000000
