10
Lattice="16.28999089631971 0.0 0.0 0.0 16.28999089631971 0.0 0.0 0.0 34.56409401068381" Properties=species:S:1:pos:R:3:initial_magmoms:R:1 pbc="T T T"
Si       1.35549090      -1.35624024       1.36009786       0.00000000
Si      -1.34729703      -1.35273789      -1.37263426       0.00000000
Si      -1.35632169       1.36050822       1.35909550       0.00000000
Si       1.37917656       1.34508159      -1.37684417       0.00000000
Si      -0.11352501       2.55523311      -2.73698351       0.00000000
Si       2.71603170      -2.70958086       0.00127887       0.00000000
Si      -2.71327217      -2.71446786      -0.00003456       0.00000000
Si      -0.00034209      -2.71236645       2.71708495       0.00000000
Si      -2.71473176       0.00237834       2.71711951       0.00000000
Si       2.71526607       0.00254124       2.71677387       0.00000000
