10
Lattice="16.28999089631971 0.0 0.0 0.0 16.28999089631971 0.0 0.0 0.0 34.56409401068381" Properties=species:S:1:pos:R:3:initial_magmoms:R:1 pbc="T T T"
Si      -1.35479043      -1.35702216       1.35698709       0.00000000
Si       1.35711990      -1.35718506      -1.35677970       0.00000000
Si       1.35681039       1.35698958       1.35781663       0.00000000
Si      -1.35734796       1.35702216      -1.35767837       0.00000000
Si      -0.00338832      -2.71373481       2.71255705       0.00000000
Si      -0.00003258       2.71249677      -2.71442351       0.00000000
Si       2.71402803      -0.00016290      -2.71314464       0.00000000
Si       0.00013032      -2.71433754      -2.71335202       0.00000000
Si      -2.71458189      -2.71440270       0.00024195       0.00000000
Si      -2.71479366       2.71526607       0.00013826       0.00000000
