10
Lattice="16.28999089631971 0.0 0.0 0.0 16.28999089631971 0.0 0.0 0.0 34.56409401068381" Properties=species:S:1:pos:R:3:initial_magmoms:R:1 pbc="T T T"
Si      -1.35487188       1.35736425      -1.35819683       0.00000000
Si       1.35843939      -1.35856971      -1.35754012       0.00000000
Si       1.35591444       1.36490652       1.35605386       0.00000000
Si      -1.36239786      -1.34320824       1.37810576       0.00000000
Si       2.65750173      -0.05960511       2.69271725       0.00000000
Si       0.00628794      -2.65439034       2.75393029       0.00000000
Si      -2.71334385       2.71127502       0.00131344       0.00000000
Si      -2.71316466      -0.00029322      -2.71521849       0.00000000
Si       0.00166158       2.71391400      -2.71514936       0.00000000
Si      -2.71306692      -2.71689507       0.00314533       0.00000000
