10
Lattice="16.28999089631971 0.0 0.0 0.0 16.28999089631971 0.0 0.0 0.0 34.56409401068381" Properties=species:S:1:pos:R:3:initial_magmoms:R:1 pbc="T T T"
Si       2.07780579       1.02051963      -0.40505684       0.00000000
Si      -1.43909118       1.88682183       0.16632251       0.00000000
Si      -0.78626943      -1.21863861      -1.89452818       0.00000000
Si       0.09826128      -1.06591986       2.13716826       0.00000000
Si      -1.27436670      -2.94664923       1.73065972       0.00000000
Si      -2.26150812       1.61398062       2.37272269       0.00000000
Si       2.09318355       2.77926948       1.19571094       0.00000000
Si       2.37866580      -1.72250460       2.36632833       0.00000000
Si      -3.15248967      -1.56727719      -1.43537850       0.00000000
Si      -0.78413544       0.43316739       3.71294618       0.00000000
