10
Lattice="16.28999089631971 0.0 0.0 0.0 16.28999089631971 0.0 0.0 0.0 34.56409401068381" Properties=species:S:1:pos:R:3:initial_magmoms:R:1 pbc="T T T"
Si       1.34729703       1.35273789       1.37263426       0.00000000
Si      -1.36597514      -1.36172997       1.37259970       0.00000000
Si      -1.46350174       1.21590189      -1.42626740       0.00000000
Si       1.41159366      -1.29386583      -1.47509266       0.00000000
Si      -0.40938399      -2.29275234      -2.76173284       0.00000000
Si      -0.11108151       2.51206461      -2.83411009       0.00000000
Si      -2.32003157      -0.57350574      -2.94298705       0.00000000
Si       2.69623935      -2.70785412       0.00577566       0.00000000
Si       2.72647359       2.69781948      -0.00420991       0.00000000
Si       2.70278793      -0.00350235       2.73273212       0.00000000
