10
Lattice="16.28999089631971 0.0 0.0 0.0 16.28999089631971 0.0 0.0 0.0 34.56409401068381" Properties=species:S:1:pos:R:3:initial_magmoms:R:1 pbc="T T T"
Si      -0.88239672       1.49908725       1.57577793       0.00000000
Si      -1.37262798      -1.88072937      -0.40650854       0.00000000
Si       2.28040452      -0.65658474       0.22916007       0.00000000
Si      -0.09826128       1.06591986      -2.13716826       0.00000000
Si       2.18114955      -2.29386006      -1.48338805       0.00000000
Si      -2.35976940       2.67990048       0.23555443       0.00000000
Si      -0.00993690      -2.94392880      -2.07056321       0.00000000
Si      -3.41529624      -0.94397292      -1.23829392       0.00000000
Si       1.97954451       2.08643949      -2.54222510       0.00000000
Si       0.80325990       2.39200731       2.91375475       0.00000000
