10
Lattice="16.28999089631971 0.0 0.0 0.0 16.28999089631971 0.0 0.0 0.0 34.56409401068381" Properties=species:S:1:pos:R:3:initial_magmoms:R:1 pbc="T T T"
Si       1.65698622      -1.56208068      -0.72339233       0.00000000
Si       1.11527856       0.48039210       2.06826035       0.00000000
Si      -0.91351062       1.67391153      -1.57377321       0.00000000
Si      -1.36941885      -2.17460097       1.76632988       0.00000000
Si      -0.69972066      -0.41386374       3.30232248       0.00000000
Si      -3.02772456      -1.32136335      -1.37302484       0.00000000
Si       2.77311186      -1.26802989       1.90320377       0.00000000
Si       0.33151779      -2.79889893      -2.35049796       0.00000000
Si       0.94177377       2.36573154      -2.87732418       0.00000000
Si      -2.54695779       0.46586142      -2.85032961       0.00000000
