10
Lattice="16.28999089631971 0.0 0.0 0.0 16.28999089631971 0.0 0.0 0.0 34.56409401068381" Properties=species:S:1:pos:R:3:initial_magmoms:R:1 pbc="T T T"
Si       1.35692442      -1.35984033       1.36555899       0.00000000
Si      -1.35953082       1.35868374       1.36625027       0.00000000
Si       1.37034738       1.34555400      -1.36941634       0.00000000
Si      -1.35669636      -1.37826432      -1.37895604       0.00000000
Si      -2.70901071       2.71067229       0.00850277       0.00000000
Si      -2.71153566      -2.71634121       0.00774236       0.00000000
Si       2.71612944       2.71249677       0.00546113       0.00000000
Si       2.71476108      -2.71397916       0.00826082       0.00000000
Si       0.02070459       2.64751596      -2.78797940       0.00000000
Si       2.71461447       0.00001629       2.72282259       0.00000000
