10
Lattice="16.28999089631971 0.0 0.0 0.0 16.28999089631971 0.0 0.0 0.0 34.56409401068381" Properties=species:S:1:pos:R:3:initial_magmoms:R:1 pbc="T T T"
Si      -1.41434667       1.31351157      -1.37019058       0.00000000
Si       1.30393305      -1.40151015      -1.39303746       0.00000000
Si      -1.15548228      -1.41727887       1.55331125       0.00000000
Si       1.50897528       1.21477788       1.43703758       0.00000000
Si       2.07107802      -0.75816918       2.79464682       0.00000000
Si      -2.63186127      -2.65771350       0.17382293       0.00000000
Si       2.70042588       2.67895778      -0.00152082       0.00000000
Si      -2.81610117       2.56249845       0.17582764       0.00000000
Si      -1.97281674       0.06076170       3.27028358       0.00000000
Si       2.66483223      -0.05194881      -2.74753593       0.00000000
