10
Lattice="16.28999089631971 0.0 0.0 0.0 16.28999089631971 0.0 0.0 0.0 34.56409401068381" Properties=species:S:1:pos:R:3:initial_magmoms:R:1 pbc="T T T"
Si       0.42704235      -0.56744586      -2.22859033       0.00000000
Si       1.05265980       1.89675451       0.89686961       0.00000000
Si      -1.93857516       1.20498663      -0.57704787       0.00000000
Si      -0.96451461      -2.02274559       0.81011369       0.00000000
Si       2.56776012      -1.13029794       1.83950211       0.00000000
Si      -2.50900209      -2.06081532      -1.03464217       0.00000000
Si       2.74624965      -1.56902022      -1.66498790       0.00000000
Si       1.76808402       3.11085962      -1.05652125       0.00000000
Si      -2.61280197       2.46498066       1.23414623       0.00000000
Si      -0.58780836       2.93085512       2.35329766       0.00000000
