10
Lattice="16.28999089631971 0.0 0.0 0.0 16.28999089631971 0.0 0.0 0.0 34.56409401068381" Properties=species:S:1:pos:R:3:initial_magmoms:R:1 pbc="T T T"
Si      -0.42704235       0.56744586       2.22859033       0.00000000
Si       1.04093100       1.76371245      -1.21226715       0.00000000
Si       2.31920730      -1.00157436       0.56360243       0.00000000
Si      -2.08213893      -1.06494246      -1.12236589       0.00000000
Si       1.96175583      -1.88387334      -1.59800265       0.00000000
Si       1.39965309       0.08907372      -2.95561189       0.00000000
Si      -2.36561751       1.77243249       1.65154246       0.00000000
Si      -2.93604444      -1.49336946       1.19394817       0.00000000
Si      -1.39155696      -1.45529973       3.03870402       0.00000000
Si      -0.34406109       3.69808154      -0.91543054       0.00000000
