10
Lattice="16.28999089631971 0.0 0.0 0.0 16.28999089631971 0.0 0.0 0.0 34.56409401068381" Properties=species:S:1:pos:R:3:initial_magmoms:R:1 pbc="T T T"
Si      -1.35673220       1.35710361      -1.35747099       0.00000000
Si       1.35765747      -1.35764118      -1.35750555       0.00000000
Si      -1.35885479      -1.35731538       1.35702165       0.00000000
Si       1.35879777       1.35796698       1.35712535       0.00000000
Si      -2.71554889      -0.00076563       2.71158925       0.00000000
Si       2.71349046      -0.00151497      -2.71449264       0.00000000
Si       0.00122175       2.71305063       2.71573695       0.00000000
Si      -2.71429386       2.71453302       0.00010369       0.00000000
Si       0.00035838      -2.71533123      -2.71362854       0.00000000
Si      -2.71443248      -2.71541268      -0.00027651       0.00000000
