10
Lattice="16.28999089631971 0.0 0.0 0.0 16.28999089631971 0.0 0.0 0.0 34.56409401068381" Properties=species:S:1:pos:R:3:initial_magmoms:R:1 pbc="T T T"
Si      -1.36208835      -1.35013249       1.36470871       0.00000000
Si       1.35356868       1.36753703       1.36629866       0.00000000
Si      -1.34799750       1.35113137      -1.39244641       0.00000000
Si       1.40484960      -1.31411530      -1.41832111       0.00000000
Si       2.70876162      -2.69894449       0.00978856       0.00000000
Si       2.70360243       2.71634740      -0.00111988       0.00000000
Si      -2.70787041      -2.71707526      -0.01016876       0.00000000
Si      -0.00521280      -2.70508582       2.72539416       0.00000000
Si       2.70918990       0.01007525       2.72473744       0.00000000
Si      -2.71824714       2.72284711      -0.00428941       0.00000000
