10
Lattice="16.28999089631971 0.0 0.0 0.0 16.28999089631971 0.0 0.0 0.0 34.56409401068381" Properties=species:S:1:pos:R:3:initial_magmoms:R:1 pbc="T T T"
Si       1.35673220      -1.35710361       1.35747099       0.00000000
Si      -1.35756166       1.35742941       1.35757468       0.00000000
Si      -1.35728185      -1.35733167      -1.35861160       0.00000000
Si       1.35841007       1.35812988      -1.35802401       0.00000000
Si      -0.00212259      -2.71441899       2.71449264       0.00000000
Si       2.71438967      -2.71474479      -0.00003456       0.00000000
Si      -2.71510710      -0.00029322       2.71414700       0.00000000
Si      -2.71517226      -2.71494027       0.00006913       0.00000000
Si       2.71552997       0.00086337       2.71459633       0.00000000
Si       2.71447112       2.71568961      -0.00013826       0.00000000
