10
Lattice="16.28999089631971 0.0 0.0 0.0 16.28999089631971 0.0 0.0 0.0 34.56409401068381" Properties=species:S:1:pos:R:3:initial_magmoms:R:1 pbc="T T T"
Si       1.36650294       1.35220032       1.34164062       0.00000000
Si       1.35531171      -1.35758579      -1.35736729       0.00000000
Si      -1.35873261       1.35920502      -1.35719447       0.00000000
Si      -1.37624436      -1.35404598       1.37492586       0.00000000
Si      -0.06639804       2.59937901       2.66268103       0.00000000
Si       2.70633915      -0.01928736       2.69631192       0.00000000
Si       2.71244920       2.71498914      -0.00335272       0.00000000
Si      -2.71839375      -2.70935884       0.00024195       0.00000000
Si       2.71356561       0.00034209      -2.71521849       0.00000000
Si      -0.00131949      -2.71395720      -2.71546044       0.00000000
