10
Lattice="16.28999089631971 0.0 0.0 0.0 16.28999089631971 0.0 0.0 0.0 34.56409401068381" Properties=species:S:1:pos:R:3:initial_magmoms:R:1 pbc="T T T"
Si       0.32755932       1.53617958      -1.76276978       0.00000000
Si      -1.53070614       1.14417702       1.38764546       0.00000000
Si       1.98306315       0.07296291       1.32211190       0.00000000
Si      -0.62900577      -2.31670516      -0.26082080       0.00000000
Si       1.15038351      -1.67231348       2.74048485       0.00000000
Si      -0.06590934       2.91177234       1.83452488       0.00000000
Si      -0.79561989      -2.83157846       2.03634474       0.00000000
Si       0.65375028       3.49334163      -0.42299562       0.00000000
Si       1.44660087      -3.08394854      -1.13028107       0.00000000
Si      -2.58523929      -2.00724891      -1.51038262       0.00000000
