10
Lattice="16.28999089631971 0.0 0.0 0.0 16.28999089631971 0.0 0.0 0.0 34.56409401068381" Properties=species:S:1:pos:R:3:initial_magmoms:R:1 pbc="T T T"
Si       2.21498618      -0.72759285       0.06439294       0.00000000
Si      -0.24773832       1.27614557       1.95978523       0.00000000
Si      -1.22376996      -2.00502600      -0.40578269       0.00000000
Si       0.12816972       1.43114492      -1.91322736       0.00000000
Si      -3.15288063      -0.84151143      -1.12609881       0.00000000
Si      -2.36752344       2.32251743       1.64020543       0.00000000
Si       0.30120210      -3.21524268      -1.80732292       0.00000000
Si       2.41112918      -2.27666175      -1.71427633       0.00000000
Si      -3.63276774       0.43820752       0.82632426       0.00000000
Si       1.89689741       2.94271031      -1.77777060       0.00000000
