10
Lattice="16.28999089631971 0.0 0.0 0.0 16.28999089631971 0.0 0.0 0.0 34.56409401068381" Properties=species:S:1:pos:R:3:initial_magmoms:R:1 pbc="T T T"
Si      -1.87522335       0.80181823      -1.18727729       0.00000000
Si       1.48021921       1.21839100       1.45503653       0.00000000
Si      -0.72440001      -1.23714961      -1.96241210       0.00000000
Si      -1.19961189      -1.51704439       1.47801475       0.00000000
Si       1.23703395      -1.09555693      -3.16880335       0.00000000
Si       2.66278688      -2.69919340       0.32491999       0.00000000
Si       2.42017991       2.94639022       0.12723050       0.00000000
Si       0.09914094       2.51341831       2.89521599       0.00000000
Si      -2.76721488       2.65898575       0.09187141       0.00000000
Si      -2.60446149      -0.20292909       2.89633586       0.00000000
