10
Lattice="16.28999089631971 0.0 0.0 0.0 16.28999089631971 0.0 0.0 0.0 34.56409401068381" Properties=species:S:1:pos:R:3:initial_magmoms:R:1 pbc="T T T"
Si      -1.18524411      -1.51078347       1.41201804       0.00000000
Si       1.54758258       1.22569218       1.38419047       0.00000000
Si       0.89199153      -1.85716751      -1.27914871       0.00000000
Si      -1.34952876       1.45484361      -1.40952454       0.00000000
Si       0.73919133      -0.61398639      -3.31435283       0.00000000
Si      -2.55549375      -0.13906773       2.80017504       0.00000000
Si       0.15566724       2.58634701       2.78680564       0.00000000
Si      -2.79972972      -2.62001844      -0.09760906       0.00000000
Si       2.76721488      -2.65898575      -0.09187141       0.00000000
Si       3.27674720       2.00665107      -0.14589512       0.00000000
