10
Lattice="16.28999089631971 0.0 0.0 0.0 16.28999089631971 0.0 0.0 0.0 34.56409401068381" Properties=species:S:1:pos:R:3:initial_magmoms:R:1 pbc="T T T"
Si      -1.34594626      -1.36278882       1.34499334       0.00000000
Si       1.35983319       1.35224919       1.35474042       0.00000000
Si       1.35669411      -1.35654975      -1.35456760       0.00000000
Si      -1.35629041       1.35757602      -1.35491324       0.00000000
Si      -0.02047783       2.69415423       2.64871713       0.00000000
Si      -2.71381756       0.00074934      -2.71196946       0.00000000
Si      -2.71103197       2.71528236       0.00193559       0.00000000
Si       0.00111641      -2.71464705      -2.71186577       0.00000000
Si       0.00125503       2.71529865      -2.71148556       0.00000000
Si       2.71554889       0.00076563      -2.71158925       0.00000000
