10
Lattice="16.28999089631971 0.0 0.0 0.0 16.28999089631971 0.0 0.0 0.0 34.56409401068381" Properties=species:S:1:pos:R:3:initial_magmoms:R:1 pbc="T T T"
Si       1.34669430      -1.37961639       1.30026738       0.00000000
Si      -1.34385984      -1.35848826      -1.34651416       0.00000000
Si      -1.40598990       1.29788946       1.34741283       0.00000000
Si       1.36905588       1.35562122      -1.34253929       0.00000000
Si       2.70913030       0.05870916       2.56095885       0.00000000
Si      -2.70505224      -0.00107514      -2.70284453       0.00000000
Si       0.01137042       2.71559187      -2.70242976       0.00000000
Si       0.01088172      -2.71619460      -2.70336300       0.00000000
Si      -0.14594211       2.46516570       2.93511538       0.00000000
Si       2.72571515      -0.00016290      -2.70291366       0.00000000
