10
Lattice="16.28999089631971 0.0 0.0 0.0 16.28999089631971 0.0 0.0 0.0 34.56409401068381" Properties=species:S:1:pos:R:3:initial_magmoms:R:1 pbc="T T T"
Si      -0.46359711       2.20232655       0.67932308       0.00000000
Si      -0.15973974       0.08897598      -2.36643202       0.00000000
Si       1.92622149      -0.94607433       1.03581735       0.00000000
Si      -1.89394056      -1.41931512       0.50802334       0.00000000
Si      -2.19480057       1.32370911      -2.26336183       0.00000000
Si      -1.30838022      -1.94789304       2.73485090       0.00000000
Si      -0.50184603      -2.18136132      -2.83252909       0.00000000
Si       1.05677190      -2.14768989       2.87970910       0.00000000
Si       2.92117886      -2.35862910      -0.56211618       0.00000000
Si      -2.17942281       3.08245896      -0.66259405       0.00000000
