10
Lattice="16.28999089631971 0.0 0.0 0.0 16.28999089631971 0.0 0.0 0.0 34.56409401068381" Properties=species:S:1:pos:R:3:initial_magmoms:R:1 pbc="T T T"
Si       1.35516510      -1.34830701      -1.34983232       0.00000000
Si      -1.30261682      -1.38113136       1.39984659       0.00000000
Si      -1.36348603       1.36257705      -1.36244822       0.00000000
Si       1.35839052       1.46170170       1.29957610       0.00000000
Si      -0.30563298       2.61131958       2.51039155       0.00000000
Si       2.68770339      -2.72736954       0.06259561       0.00000000
Si      -0.00563634      -2.70555723      -2.71051777       0.00000000
Si       2.70619254       0.01187541      -2.71103623       0.00000000
Si      -0.00654858       2.72414412      -2.71304095       0.00000000
Si      -2.72331922       0.01032786      -2.71718864       0.00000000
