10
Lattice="16.28999089631971 0.0 0.0 0.0 16.28999089631971 0.0 0.0 0.0 34.56409401068381" Properties=species:S:1:pos:R:3:initial_magmoms:R:1 pbc="T T T"
Si       0.11075571      -2.23296804       0.75650475       0.00000000
Si      -0.26847549      -0.19295505      -2.37659387       0.00000000
Si       2.13322015       1.10413620       0.18737206       0.00000000
Si      -1.22132646       1.33604064       1.69613017       0.00000000
Si       1.43299939      -1.88121807      -2.58691650       0.00000000
Si      -0.64257534       2.06560458      -2.91627793       0.00000000
Si      -3.11189499       2.07583470       0.31633077       0.00000000
Si      -1.80046854      -3.31038864      -0.17686457       0.00000000
Si       0.11210778       3.27484386       2.11089953       0.00000000
Si       3.04556930       1.52735040      -1.94537199       0.00000000
