10
Lattice="16.28999089631971 0.0 0.0 0.0 16.28999089631971 0.0 0.0 0.0 34.56409401068381" Properties=species:S:1:pos:R:3:initial_magmoms:R:1 pbc="T T T"
Si      -0.19386729      -1.32002757       1.90372223       0.00000000
Si      -0.35745147      -0.88229898      -2.16160508       0.00000000
Si       1.62983079       1.69402968       0.69522258       0.00000000
Si      -2.31920730       1.00157436      -0.56360243       0.00000000
Si       3.30442554       0.65445075      -0.61168111       0.00000000
Si      -1.27827630       2.76528681      -1.77586958       0.00000000
Si      -0.17848953       0.43872228       3.50449001       0.00000000
Si      -2.74624965       1.56902022       1.66498790       0.00000000
Si       1.84119354      -2.55476070       1.80065205       0.00000000
Si       0.75883707       3.51751340      -0.59674942       0.00000000
