10
Lattice="16.28999089631971 0.0 0.0 0.0 16.28999089631971 0.0 0.0 0.0 34.56409401068381" Properties=species:S:1:pos:R:3:initial_magmoms:R:1 pbc="T T T"
Si      -0.81552627       2.10315303      -0.42237346       0.00000000
Si      -2.09619557      -1.07642691       0.10777091       0.00000000
Si       0.73500480       0.11201004       2.26197927       0.00000000
Si       1.35536058      -1.05810066      -1.77044301       0.00000000
Si      -1.31829431      -2.98528911       1.22699146       0.00000000
Si      -0.31960980      -1.87400160       3.08543470       0.00000000
Si       1.11480615       3.46177161      -0.64206297       0.00000000
Si       3.13053075      -0.15543918       2.08317911       0.00000000
Si       2.34898542      -2.90030418      -0.75460372       0.00000000
Si      -1.64733277       2.38609404      -2.51626745       0.00000000
