10
Lattice="16.28999089631971 0.0 0.0 0.0 16.28999089631971 0.0 0.0 0.0 34.56409401068381" Properties=species:S:1:pos:R:3:initial_magmoms:R:1 pbc="T T T"
Si       1.96143396       0.14159268      -1.20639125       0.00000000
Si      -1.33343424      -1.93880322      -0.41476936       0.00000000
Si       0.72440001       1.23714961       1.96241210       0.00000000
Si      -1.15082334       2.03896784       0.77513481       0.00000000
Si      -1.43814636      -2.06667972       2.11397574       0.00000000
Si      -0.47521188      -0.27989478       3.44042685       0.00000000
Si       2.02111237      -2.17070766      -1.92352747       0.00000000
Si       1.15910096       1.27841055      -3.15546160       0.00000000
Si      -1.30362354       3.28214897      -1.26006932       0.00000000
Si      -3.22400277      -1.19900916      -1.79456876       0.00000000
