10
Lattice="16.28999089631971 0.0 0.0 0.0 16.28999089631971 0.0 0.0 0.0 34.56409401068381" Properties=species:S:1:pos:R:3:initial_magmoms:R:1 pbc="T T T"
Si       0.94434759       1.19998656      -1.83106847       0.00000000
Si      -1.07287569      -1.93706019      -0.97467343       0.00000000
Si       1.89056853      -0.73979406       1.37979940       0.00000000
Si      -1.45727082       1.80923256       1.13829994       0.00000000
Si      -1.85069061      -0.95684202      -2.94869907       0.00000000
Si      -0.98476308       2.36350113      -2.55138459       0.00000000
Si       3.11189499      -2.07583470      -0.31633077       0.00000000
Si       3.22400277       1.19900916       1.79456876       0.00000000
Si      -2.92816008      -2.62888020       0.32887754       0.00000000
Si      -1.46465019       3.64322007      -0.59896152       0.00000000
