10
Lattice="16.28999089631971 0.0 0.0 0.0 16.28999089631971 0.0 0.0 0.0 34.56409401068381" Properties=species:S:1:pos:R:3:initial_magmoms:R:1 pbc="T T T"
Si      -0.83180650       0.28294101      -2.09389399       0.00000000
Si       0.81552627      -2.10315303       0.42237346       0.00000000
Si      -1.19964936       1.03827573       1.72450731       0.00000000
Si       1.93033242       1.35861858      -0.21968950       0.00000000
Si      -1.28066930      -3.17957994       0.53014437       0.00000000
Si      -2.55211262       1.88480187      -1.67729273       0.00000000
Si       0.95959503       1.37731950      -3.17253627       0.00000000
Si       0.51386805       2.09577366       2.91333998       0.00000000
Si       1.55053107      -1.99114299       2.68435273       0.00000000
Si      -2.90915684       2.27304144       0.64292707       0.00000000
