10
Lattice="16.28999089631971 0.0 0.0 0.0 16.28999089631971 0.0 0.0 0.0 34.56409401068381" Properties=species:S:1:pos:R:3:initial_magmoms:R:1 pbc="T T T"
Si      -1.55112403       1.43013168      -1.16456867       0.00000000
Si      -1.26351756      -1.87326855       0.85487421       0.00000000
Si       1.84239900      -0.85406841      -1.35332329       0.00000000
Si      -1.16146071       1.78026894       1.84126488       0.00000000
Si       1.17933084       1.74322548       2.43096322       0.00000000
Si       0.72961281      -0.60843150      -3.44749379       0.00000000
Si      -0.44818677       1.45940481      -3.24743670       0.00000000
Si      -1.10006370      -3.29896935      -1.10200763       0.00000000
Si      -3.53355254       0.17024679      -1.26034583       0.00000000
Si       2.27190114      -2.98903581      -0.39289028       0.00000000
