10
Lattice="16.28999089631971 0.0 0.0 0.0 16.28999089631971 0.0 0.0 0.0 34.56409401068381" Properties=species:S:1:pos:R:3:initial_magmoms:R:1 pbc="T T T"
Si       1.25194514       1.57338594      -1.18696414       0.00000000
Si      -1.30654160       1.37070576       1.39424029       0.00000000
Si      -2.00032796      -0.74953548      -1.01979826       0.00000000
Si       1.40049365      -1.36063854       1.37399263       0.00000000
Si       2.41922138      -0.07447788      -2.32673310       0.00000000
Si      -2.61045362       2.75553495      -0.03386937       0.00000000
Si      -2.66657267       0.00972513       2.75437963       0.00000000
Si       0.05177939      -2.70441693       2.75154537       0.00000000
Si       0.04975618       2.72077209       2.75081952       0.00000000
Si      -2.74456919      -2.75809248      -0.10374419       0.00000000
