10
Lattice="16.28999089631971 0.0 0.0 0.0 16.28999089631971 0.0 0.0 0.0 34.56409401068381" Properties=species:S:1:pos:R:3:initial_magmoms:R:1 pbc="T T T"
Si      -1.35675983      -1.35708732       1.35712535       0.00000000
Si       1.35973518      -1.35451350      -1.35788576       0.00000000
Si       1.35847759       1.35751086       1.35691796       0.00000000
Si      -1.35861689       1.35962856      -1.35505150       0.00000000
Si      -2.71256024       2.71446786       0.00041477       0.00000000
Si      -2.71357022      -0.00039096       2.71470002       0.00000000
Si       0.00180295       2.71445157       2.71476915       0.00000000
Si      -2.71458020      -2.71557558       0.00110605       0.00000000
Si       2.71555188       2.71515204       0.00010369       0.00000000
Si       0.00168156      -2.71581993       2.71497654       0.00000000
