10
Lattice="16.28999089631971 0.0 0.0 0.0 16.28999089631971 0.0 0.0 0.0 34.56409401068381" Properties=species:S:1:pos:R:3:initial_magmoms:R:1 pbc="T T T"
Si       1.62008937      -1.12728429       1.29269784       0.00000000
Si      -1.89666751      -1.32763500       0.46191481       0.00000000
Si      -0.28409760       2.08093347       1.10345932       0.00000000
Si       0.42647220      -0.32426874      -2.34137304       0.00000000
Si       1.94605227      -2.14873245      -2.11466702       0.00000000
Si       1.95077637      -3.10987503       0.04196083       0.00000000
Si      -3.59814239       0.36062802       0.67223744       0.00000000
Si      -2.28229432      -2.45763972      -1.63889200       0.00000000
Si      -1.19644674       1.65771927       3.23620337       0.00000000
Si       0.83070855      -1.51567047       3.46346241       0.00000000
