10
Lattice="16.28999089631971 0.0 0.0 0.0 16.28999089631971 0.0 0.0 0.0 34.56409401068381" Properties=species:S:1:pos:R:3:initial_magmoms:R:1 pbc="T T T"
Si      -1.37291861       1.36210138       1.32387467       0.00000000
Si      -1.36323725      -1.33301634      -1.37347417       0.00000000
Si       1.35087431       1.38049279      -1.36911909       0.00000000
Si       1.26013901      -1.46874942       1.47644066       0.00000000
Si      -2.71470962      -2.69608689       0.00525375       0.00000000
Si       2.71618808      -2.69840007       0.02087672       0.00000000
Si      -0.00718552      -2.68839801      -2.73070321       0.00000000
Si       2.70695165       0.02344131      -2.73142906       0.00000000
Si      -2.71275482       2.73358906      -0.03079662       0.00000000
Si       0.05389384       2.70491866       2.74124526       0.00000000
