10
Lattice="16.28999089631971 0.0 0.0 0.0 16.28999089631971 0.0 0.0 0.0 34.56409401068381" Properties=species:S:1:pos:R:3:initial_magmoms:R:1 pbc="T T T"
Si       2.20344242       0.37243827       0.61517209       0.00000000
Si      -1.67459475       1.03957893       1.30690369       0.00000000
Si       0.22802742      -2.13232842       1.07808926       0.00000000
Si       0.77336449       0.53211285      -2.74767419       0.00000000
Si       2.29176680      -0.89984331      -1.57325475       0.00000000
Si       1.41733588      -2.99926593      -0.69878268       0.00000000
Si       2.21108242      -1.41623631       2.19005135       0.00000000
Si      -3.30442554      -0.65445075       0.61168111       0.00000000
Si      -2.54558847       2.86306265       0.01493170       0.00000000
Si       2.45419438       2.36697188       1.92791711       0.00000000
