10
Lattice="10.86 0.0 0.0 0.0 10.86 0.0 0.0 0.0 10.86" Properties=species:S:1:pos:R:3:initial_magmoms:R:1 pbc="T T T"
Si       1.43525760      -1.19153748      -1.25311368       0.00000000
Si      -1.27974240      -1.19153748       1.46188632       0.00000000
Si       1.38247800       1.42179120       1.24841130       0.00000000
Si      -1.27974240       1.52346252      -1.25311368       0.00000000
Si      -0.08201472       2.61696678       2.46059364       0.00000000
Si       0.07775760      -2.54903748      -2.61061368       0.00000000
Si      -2.63724240      -2.54903748       0.10438632       0.00000000
Si      -2.63724240       0.16596252      -2.61061368       0.00000000
Si       2.79275760      -2.54903748       0.10438632       0.00000000
Si       0.07775760      -2.54903748       2.81938632       0.00000000
