10
Lattice="10.86 0.0 0.0 0.0 10.86 0.0 0.0 0.0 10.86" Properties=species:S:1:pos:R:3:initial_magmoms:R:1 pbc="T T T"
Si      -1.46449272       1.19517558       1.21218234       0.00000000
Si      -1.38247800      -1.42179120      -1.24841130       0.00000000
Si       1.47414726      -1.16817762       1.55201346       0.00000000
Si      -0.04140918       2.56609854      -2.29458768       0.00000000
Si       0.05277960      -2.61332868      -2.50152498       0.00000000
Si      -2.66222040       0.10167132      -2.50152498       0.00000000
Si      -2.66222040      -2.61332868       0.21347502       0.00000000
Si       2.76777960      -2.61332868       0.21347502       0.00000000
Si      -2.66222040       2.81667132       0.21347502       0.00000000
Si       0.05277960      -2.61332868       2.92847502       0.00000000
