10
Lattice="10.86 0.0 0.0 0.0 10.86 0.0 0.0 0.0 10.86" Properties=species:S:1:pos:R:3:initial_magmoms:R:1 pbc="T T T"
Si       1.15092108      -1.45862832      -1.08460992       0.00000000
Si      -1.56407892       1.25637168      -1.08460992       0.00000000
Si       1.15092108       1.25637168       1.63039008       0.00000000
Si      -0.19514334      -2.80862406      -2.06991600       0.00000000
Si       2.50842108      -0.10112832      -2.44210992       0.00000000
Si      -0.20657892       2.61387168      -2.44210992       0.00000000
Si       2.50842108       2.61387168       0.27289008       0.00000000
Si       2.50842108      -2.81612832       0.27289008       0.00000000
Si       2.50842108      -0.10112832       2.98789008       0.00000000
Si      -2.97933240      -0.14167956      -2.53999110       0.00000000
