10
Lattice="16.28999089631971 0.0 0.0 0.0 16.28999089631971 0.0 0.0 0.0 34.64500226677339" Properties=species:S:1:pos:R:3:initial_magmoms:R:1 pbc="T T T"
Si       0.43761456       0.10207314      -2.23605899       0.00000000
Si      -2.34008619      -0.10871946       0.33875902       0.00000000
Si       0.66626100       2.13105684       0.91102549       0.00000000
Si       0.65208870      -2.32741746       0.06731528       0.00000000
Si      -2.04444550       0.07837119       2.77589771       0.00000000
Si      -1.43985844       2.55606783       2.08937196       0.00000000
Si      -2.81193940      -2.33241849      -0.32136722       0.00000000
Si      -0.98108154      -3.24169371      -1.42817173       0.00000000
Si      -0.40648437      -1.85644098      -3.26266027       0.00000000
Si       2.46936852       1.19259090      -2.62585012       0.00000000
