10
Lattice="16.28999089631971 0.0 0.0 0.0 16.28999089631971 0.0 0.0 0.0 34.64500226677339" Properties=species:S:1:pos:R:3:initial_magmoms:R:1 pbc="T T T"
Si      -1.60940869       0.48912421       1.73824467       0.00000000
Si       0.12284289       0.68610615      -2.31764801       0.00000000
Si      -0.48174417      -1.79159049      -1.63112226       0.00000000
Si       2.03015917       1.38533648       0.33273079       0.00000000
Si       0.00646713       1.41115613       3.17424067       0.00000000
Si      -2.85477919      -1.90117332      -0.58054663       0.00000000
Si       1.13404627       2.94833429       1.82333739       0.00000000
Si       1.86703111      -3.01133682       1.85207820       0.00000000
Si       2.06016535       3.33152396      -1.17761893       0.00000000
Si       2.22896233       0.26109516      -3.49599449       0.00000000
