10
Lattice="16.28999089631971 0.0 0.0 0.0 16.28999089631971 0.0 0.0 0.0 34.64500226677339" Properties=species:S:1:pos:R:3:initial_magmoms:R:1 pbc="T T T"
Si       0.93408489       1.80328671      -1.24219725       0.00000000
Si      -1.77629418      -0.97197543      -1.26211814       0.00000000
Si       1.85692968      -1.67216850       0.15621440       0.00000000
Si      -0.76939299      -0.52478235       2.71426422       0.00000000
Si       1.58379525      -0.59777784       2.42626015       0.00000000
Si       2.27980179       0.38939616      -2.65363543       0.00000000
Si      -0.44976690      -2.35619049      -2.65446691       0.00000000
Si      -1.51995474      -2.78197525       2.12935232       0.00000000
Si      -3.34404378      -1.94162139       0.17523452       0.00000000
Si       0.97451667      -3.63158167      -1.20176651       0.00000000
