10
Lattice="16.28999089631971 0.0 0.0 0.0 16.28999089631971 0.0 0.0 0.0 34.64500226677339" Properties=species:S:1:pos:R:3:initial_magmoms:R:1 pbc="T T T"
Si       0.75056175       2.25719290       0.58491190       0.00000000
Si      -1.18757358      -1.08602728       1.84955912       0.00000000
Si       2.12141412      -1.32110827       0.26382184       0.00000000
Si      -1.82408904       0.84035386      -1.95411780       0.00000000
Si       0.23806206       1.79822215       2.90661338       0.00000000
Si       1.69098345      -2.63020525      -1.89005915       0.00000000
Si      -1.93710906       0.89440408       2.99540857       0.00000000
Si      -3.18433662      -1.97930572       0.62742134       0.00000000
Si       3.10374999       2.18419741       0.29690784       0.00000000
Si       1.51995474       2.78197525      -2.12935232       0.00000000
