10
Lattice="16.28999089631971 0.0 0.0 0.0 16.28999089631971 0.0 0.0 0.0 34.64500226677339" Properties=species:S:1:pos:R:3:initial_magmoms:R:1 pbc="T T T"
Si       0.26513604      -1.42881219      -1.86514938       0.00000000
Si       1.34159553      -1.01333574       1.73381011       0.00000000
Si      -2.34668853      -0.38802780       0.62153169       0.00000000
Si       0.81722043       2.35989972       0.10736492       0.00000000
Si      -0.24052185      -0.31320783       3.43623183       0.00000000
Si      -1.24916607      -0.36386973      -3.41159921       0.00000000
Si      -1.63240461       1.86012252      -2.75074543       0.00000000
Si      -2.19357882      -1.43079957       2.79765479       0.00000000
Si       3.39266943       0.26937144       1.79693334       0.00000000
Si       2.30495355       2.43537129       1.98107163       0.00000000
