10
Lattice="16.28999089631971 0.0 0.0 0.0 16.28999089631971 0.0 0.0 0.0 34.64500226677339" Properties=species:S:1:pos:R:3:initial_magmoms:R:1 pbc="T T T"
Si      -0.91584009      -2.01258063      -0.98334759       0.00000000
Si       1.21282308      -1.22636007       1.70781595       0.00000000
Si       1.92419109       1.10392443      -1.19339423       0.00000000
Si      -1.50628743       1.48462173       1.67915759       0.00000000
Si      -1.39408191       0.94108959      -3.02507653       0.00000000
Si       2.71806795      -2.47236588       0.27837275       0.00000000
Si       1.05549426      -3.47732856      -1.05408660       0.00000000
Si      -2.84832279      -2.58809004       0.33388447       0.00000000
Si       2.64570777       2.91120219       0.24345403       0.00000000
Si       2.55261042       0.12694797       3.08756779       0.00000000
