10
Lattice="16.28999089631971 0.0 0.0 0.0 16.28999089631971 0.0 0.0 0.0 34.64500226677339" Properties=species:S:1:pos:R:3:initial_magmoms:R:1 pbc="T T T"
Si       1.35744570       1.35552348      -1.35704550       0.00000000
Si      -1.36011726       1.35412254       1.35763446       0.00000000
Si      -1.35782037      -1.35992178      -1.35708014       0.00000000
Si       1.35650088      -1.35927018       1.36418237       0.00000000
Si      -2.71298547       2.71340901       0.00006929       0.00000000
Si       0.00011403       2.71248048      -2.71502641       0.00000000
Si       2.71414206      -0.00169416      -2.71422957       0.00000000
Si      -2.71270854      -2.71572056      -0.00069290       0.00000000
Si      -2.71490769      -0.00280188      -2.71454138       0.00000000
Si      -0.00073305      -2.71696837      -2.71429886       0.00000000
