10
Lattice="16.28999089631971 0.0 0.0 0.0 16.28999089631971 0.0 0.0 0.0 34.64500226677339" Properties=species:S:1:pos:R:3:initial_magmoms:R:1 pbc="T T T"
Si      -2.32430607      -0.02189376      -0.47037546       0.00000000
Si       0.83619828       2.09925972      -0.77154463       0.00000000
Si       0.58922559      -0.10394649       2.35485677       0.00000000
Si       1.48496382      -1.86896799      -0.62769850       0.00000000
Si       0.97246413      -2.32793874       1.69400298       0.00000000
Si       2.38189122       1.43990568       2.23702905       0.00000000
Si      -0.65883276       2.29368087      -2.72715217       0.00000000
Si      -3.05064459      -1.92169872       0.83449464       0.00000000
Si       3.18725253       2.05913745       0.11398212       0.00000000
Si      -3.23793072       1.83133809       0.99535147       0.00000000
