10
Lattice="16.28999089631971 0.0 0.0 0.0 16.28999089631971 0.0 0.0 0.0 34.64500226677339" Properties=species:S:1:pos:R:3:initial_magmoms:R:1 pbc="T T T"
Si       1.33058349       0.12812085       1.98997540       0.00000000
Si       1.31735601      -0.55785105      -1.93284576       0.00000000
Si      -0.61190127       2.30606127      -0.34762815       0.00000000
Si      -1.84671585      -1.59451407       0.20679613       0.00000000
Si      -0.08351883       0.47667798      -3.51650434       0.00000000
Si      -1.45508796      -2.24414298       2.53826751       0.00000000
Si       0.76044978      -1.76396265       3.20840616       0.00000000
Si      -1.04285322       2.47034592      -2.64275689       0.00000000
Si       3.45898602       0.47374578      -1.84425844       0.00000000
Si       1.34860023       3.72148308      -0.15330422       0.00000000
