10
Lattice="16.28999089631971 0.0 0.0 0.0 16.28999089631971 0.0 0.0 0.0 34.64500226677339" Properties=species:S:1:pos:R:3:initial_magmoms:R:1 pbc="T T T"
Si      -1.50744402       1.17190260      -1.43426925       0.00000000
Si       1.19001708      -1.55677014      -1.43312596       0.00000000
Si      -1.26198630      -1.01112030       1.83455783       0.00000000
Si       2.03506083       0.87521283       1.34952753       0.00000000
Si       2.66543496       2.62997163      -0.04822587       0.00000000
Si      -0.15247440       2.51032158      -2.81133957       0.00000000
Si       2.56461615      -0.20813733      -2.80777113       0.00000000
Si       2.58528816      -2.84570010      -0.02244997       0.00000000
Si      -2.80675071       2.65228893      -0.02982936       0.00000000
Si       3.54338451      -1.03467564       1.16434989       0.00000000
