10
Lattice="16.28999089631971 0.0 0.0 0.0 16.28999089631971 0.0 0.0 0.0 34.64500226677339" Properties=species:S:1:pos:R:3:initial_magmoms:R:1 pbc="T T T"
Si      -2.01861837       0.69168969      -0.87565292       0.00000000
Si       1.05581680       1.35125550       1.55178516       0.00000000
Si      -0.43945533      -2.07585818       0.96271586       0.00000000
Si       1.21506784       1.91049120      -2.28009281       0.00000000
Si       1.65652684      -2.83251239       0.13210147       0.00000000
Si      -1.92190464      -0.45834033      -2.84577672       0.00000000
Si       1.78215532       3.25106046       0.24691507       0.00000000
Si       2.90375440       0.04119741       2.50008870       0.00000000
Si       3.01677442      -0.01285281      -2.44943767       0.00000000
Si      -0.25208123       2.04271713       3.46263133       0.00000000
