10
Lattice="16.28999089631971 0.0 0.0 0.0 16.28999089631971 0.0 0.0 0.0 34.64500226677339" Properties=species:S:1:pos:R:3:initial_magmoms:R:1 pbc="T T T"
Si       1.17314064      -1.53093420       1.49964441       0.00000000
Si      -1.51606143       1.20505275       1.50918565       0.00000000
Si       1.90803141       0.92152530      -1.27708621       0.00000000
Si      -2.03170509      -0.83802276      -1.28016962       0.00000000
Si       2.53565253      -0.17024679       2.88691422       0.00000000
Si       2.62241307      -2.81730663       0.04581458       0.00000000
Si      -0.18280638       2.53939923       2.89200704       0.00000000
Si      -2.83762026       2.63777454       0.11298434       0.00000000
Si       2.76679134       2.71956663       0.11279033       0.00000000
Si       3.61260072      -0.95835699      -1.28585140       0.00000000
