10
Lattice="16.28999089631971 0.0 0.0 0.0 16.28999089631971 0.0 0.0 0.0 34.64500226677339" Properties=species:S:1:pos:R:3:initial_magmoms:R:1 pbc="T T T"
Si      -1.33325505      -1.33434648      -1.38282139       0.00000000
Si       1.36093176      -1.35047358       1.35808485       0.00000000
Si      -1.35420399       1.36399428       1.35888168       0.00000000
Si       1.36456443       1.37448374      -1.39359253       0.00000000
Si       0.00211770      -2.70956457       2.71506105       0.00000000
Si      -2.71342530      -2.71347417      -0.00183619       0.00000000
Si      -2.71257822       0.00488700       2.71540751       0.00000000
Si       2.71845891      -2.70964602      -0.00509282       0.00000000
Si      -2.71028133       2.72060172       0.00006929       0.00000000
Si       2.71349046       2.71877398      -0.00304876       0.00000000
