10
Lattice="16.28999089631971 0.0 0.0 0.0 16.28999089631971 0.0 0.0 0.0 34.64500226677339" Properties=species:S:1:pos:R:3:initial_magmoms:R:1 pbc="T T T"
Si       0.99457618       2.10763278       0.39277061       0.00000000
Si       0.52024233      -1.37974671       1.84696075       0.00000000
Si      -2.32494205       0.43253208      -0.33328511       0.00000000
Si       1.30789804      -0.69146163      -1.91084617       0.00000000
Si       1.12061191       3.06157518      -1.74998933       0.00000000
Si       2.73561880      -2.18224098       1.37682780       0.00000000
Si      -1.06657213      -3.16755140       1.89175676       0.00000000
Si       3.15583564      -2.00151972      -0.96254264       0.00000000
Si       3.20670931       1.87553286       1.12364199       0.00000000
Si      -2.55236674       1.89636777      -2.26176559       0.00000000
