10
Lattice="16.28999089631971 0.0 0.0 0.0 16.28999089631971 0.0 0.0 0.0 34.64500226677339" Properties=species:S:1:pos:R:3:initial_magmoms:R:1 pbc="T T T"
Si       0.80348796       1.78059883      -1.44105967       0.00000000
Si       1.78730622      -1.72123398      -0.23163661       0.00000000
Si      -1.87660800      -0.96681150      -1.40877051       0.00000000
Si       0.43043067       1.30909698       2.15388099       0.00000000
Si      -0.12572622      -2.36424915       2.20300764       0.00000000
Si       2.11336686       0.37362744      -2.89829857       0.00000000
Si      -1.69098345       2.63020525       1.89005915       0.00000000
Si       0.46921716      -0.60771474       3.67005108       0.00000000
Si      -0.62351604      -2.36955969      -2.89105776       0.00000000
Si       3.59275950      -0.76437567      -1.41039883       0.00000000
