10
Lattice="16.28999089631971 0.0 0.0 0.0 16.28999089631971 0.0 0.0 0.0 34.64500226677339" Properties=species:S:1:pos:R:3:initial_magmoms:R:1 pbc="T T T"
Si      -1.63865997      -0.72436743       1.50400968       0.00000000
Si      -0.87607620      -1.00875825      -1.95027220       0.00000000
Si       0.54087687       2.26762406      -0.59665656       0.00000000
Si       1.60298487      -1.23546618       1.33126960       0.00000000
Si      -1.33564968      -3.07450944       1.00498279       0.00000000
Si       2.80339497       2.03478620      -1.34197491       0.00000000
Si       1.93083741       0.19653885       3.23979455       0.00000000
Si       0.94871331      -1.70357562      -3.26972785       0.00000000
Si      -1.71458766      -3.11477832      -1.38514261       0.00000000
Si       3.38527377      -1.84093290      -0.06017840       0.00000000
