10
Lattice="16.28999089631971 0.0 0.0 0.0 16.28999089631971 0.0 0.0 0.0 34.64500226677339" Properties=species:S:1:pos:R:3:initial_magmoms:R:1 pbc="T T T"
Si      -1.49680665      -1.38924378       1.08695291       0.00000000
Si       2.04265197      -0.23824125       1.15111549       0.00000000
Si      -0.37893798      -0.04026888      -2.39012540       0.00000000
Si      -0.30301029       2.35014201       0.49902689       0.00000000
Si       2.93863455       1.83904326       0.32628681       0.00000000
Si       1.33564968       3.07450944      -1.00498279       0.00000000
Si       0.45957348       2.06575119      -2.95525499       0.00000000
Si      -3.08480472      -0.05103657       2.14424968       0.00000000
Si      -2.69879688      -0.01617597      -2.65370472       0.00000000
Si       2.85008211      -2.48143941       0.85756822       0.00000000
