10
Lattice="16.28999089631971 0.0 0.0 0.0 16.28999089631971 0.0 0.0 0.0 34.64500226677339" Properties=species:S:1:pos:R:3:initial_magmoms:R:1 pbc="T T T"
Si       2.17517112       0.90381807      -0.08879519       0.00000000
Si      -0.42021684      -0.18072126       2.33937044       0.00000000
Si       0.74953548      -1.98043136      -1.14584945       0.00000000
Si      -1.84793760       1.31005809      -0.94830353       0.00000000
Si       1.79193258       3.12781032       0.57205860       0.00000000
Si       1.93710906      -0.89440408      -2.99540857       0.00000000
Si      -2.90375440      -0.04119741      -2.50008870       0.00000000
Si       2.68767081       1.36278882      -2.41049667       0.00000000
Si      -3.15583564       2.00151972       0.96254264       0.00000000
Si       1.20270699       3.23175681      -1.78279817       0.00000000
