10
Lattice="16.28999089631971 0.0 0.0 0.0 16.28999089631971 0.0 0.0 0.0 34.64500226677339" Properties=species:S:1:pos:R:3:initial_magmoms:R:1 pbc="T T T"
Si       2.09727234      -0.56366658       0.86733812       0.00000000
Si       0.03929148       2.33474796       0.32081290       0.00000000
Si      -1.68305022      -1.35775521       1.07649011       0.00000000
Si       0.32079897      -0.25138728      -2.40633927       0.00000000
Si      -2.24764533      -2.69286732      -0.78502155       0.00000000
Si      -1.93080483       2.98484928      -0.77639493       0.00000000
Si       2.44353258      -2.84972373       0.63133623       0.00000000
Si       1.54463409       3.25790226      -1.32264299       0.00000000
Si       1.12822911      -2.49458544      -2.69988654       0.00000000
Si       1.21678155       1.82589723      -3.23116794       0.00000000
