10
Lattice="16.28999089631971 0.0 0.0 0.0 16.28999089631971 0.0 0.0 0.0 34.64500226677339" Properties=species:S:1:pos:R:3:initial_magmoms:R:1 pbc="T T T"
Si      -0.84085722       1.96424168      -1.00903625       0.00000000
Si       0.07027506       0.28048611       2.40180077       0.00000000
Si       2.06951418      -0.68718550      -1.28442953       0.00000000
Si      -1.82319309      -1.54106399      -1.04212225       0.00000000
Si      -0.56772279       0.88985102      -3.27908201       0.00000000
Si       3.46424769       1.15444949      -0.63019294       0.00000000
Si       1.63755225       2.02286939       2.69552126       0.00000000
Si      -3.19404546       2.03723717      -0.72103219       0.00000000
Si      -2.19224304       0.51332396       3.14711912       0.00000000
Si      -1.78440660      -3.45787571       0.47404783       0.00000000
