10
Lattice="16.28999089631971 0.0 0.0 0.0 16.28999089631971 0.0 0.0 0.0 34.64500226677339" Properties=species:S:1:pos:R:3:initial_magmoms:R:1 pbc="T T T"
Si      -0.21030390      -2.19692546       0.71299455       0.00000000
Si       0.42021684       0.18072126      -2.33937044       0.00000000
Si      -2.21537647       0.80249427       0.47013294       0.00000000
Si       1.49786550       1.06038126       1.60496527       0.00000000
Si       0.19448631       2.99628486       1.90312033       0.00000000
Si      -1.34785089      -1.88236556       2.80510347       0.00000000
Si       2.59538796       1.08453933      -2.42816563       0.00000000
Si      -1.94195859       1.98827595       2.50556261       0.00000000
Si       1.93015323      -2.97239462       1.21895044       0.00000000
Si      -2.73561880       2.18224098      -1.37682780       0.00000000
