10
Lattice="16.28999089631971 0.0 0.0 0.0 16.28999089631971 0.0 0.0 0.0 34.64500226677339" Properties=species:S:1:pos:R:3:initial_magmoms:R:1 pbc="T T T"
Si      -1.43759250      -1.77404616      -0.34839034       0.00000000
Si       1.50372990       1.36122498      -1.12028142       0.00000000
Si      -0.99758331       2.06272125       0.96836300       0.00000000
Si       1.83290193      -1.59583356       0.78197278       0.00000000
Si       0.75720807      -1.13137308       3.04803436       0.00000000
Si      -1.14023484       0.70323930       3.07117723       0.00000000
Si       3.30805917      -0.10738368      -0.67717159       0.00000000
Si      -0.57938643      -2.37131901      -2.45820286       0.00000000
Si       0.66577230       3.44173491      -0.36235228       0.00000000
Si      -3.81614427      -1.37031480      -0.19913958       0.00000000
