10
Lattice="16.28999089631971 0.0 0.0 0.0 16.28999089631971 0.0 0.0 0.0 34.64500226677339" Properties=species:S:1:pos:R:3:initial_magmoms:R:1 pbc="T T T"
Si       0.72151668       1.80727776       1.43684827       0.00000000
Si       0.14265153       1.35948195      -2.10281423       0.00000000
Si      -1.92419109      -1.10392443       1.19339423       0.00000000
Si       1.89744291      -1.83461238      -0.02314287       0.00000000
Si       1.14023484      -0.70323930      -3.07117723       0.00000000
Si       2.00469627       0.40104351       2.90718645       0.00000000
Si      -0.71136801      -2.33028450       2.90121018       0.00000000
Si      -3.31827300      -0.16283484      -1.83168229       0.00000000
Si       3.47064966      -0.88189173       1.52336728       0.00000000
Si       0.79387686      -3.57629031       1.47176698       0.00000000
