10
Lattice="16.28999089631971 0.0 0.0 0.0 16.28999089631971 0.0 0.0 0.0 34.64500226677339" Properties=species:S:1:pos:R:3:initial_magmoms:R:1 pbc="T T T"
Si      -1.50372990      -1.36122498       1.12028142       0.00000000
Si       0.34353981       0.97744887      -2.09342543       0.00000000
Si      -0.83795760       2.08050993       0.75792914       0.00000000
Si       1.80432927      -1.46860866       0.44310983       0.00000000
Si      -2.50131321       0.70149627       2.08864442       0.00000000
Si       0.32917203      -2.95705854       1.90225420       0.00000000
Si       1.85712516      -2.43633240      -1.78550048       0.00000000
Si       1.09304271      -0.84727548      -3.40751110       0.00000000
Si      -1.75930371       1.34271954      -2.97808606       0.00000000
Si       0.75044772       2.78759367       2.34862066       0.00000000
