10
Lattice="16.28999089631971 0.0 0.0 0.0 16.28999089631971 0.0 0.0 0.0 34.64500226677339" Properties=species:S:1:pos:R:3:initial_magmoms:R:1 pbc="T T T"
Si      -1.34635221      -1.34337114      -1.36445260       0.00000000
Si      -1.35301482       1.35925389       1.35815414       0.00000000
Si       1.36024758      -1.35234693       1.35853523       0.00000000
Si       1.36774098       1.36811565      -1.34673167       0.00000000
Si      -2.48042943       0.17663247      -2.77897419       0.00000000
Si       0.07379370      -2.51491536      -2.86957785       0.00000000
Si      -2.71156824      -2.71318095      -0.00485030       0.00000000
Si      -2.71270854       0.00115659       2.71554609       0.00000000
Si       0.00143352      -2.71264338       2.71578860       0.00000000
Si       2.71507059      -2.71617831      -0.00543927       0.00000000
