10
Lattice="16.28999089631971 0.0 0.0 0.0 16.28999089631971 0.0 0.0 0.0 34.64500226677339" Properties=species:S:1:pos:R:3:initial_magmoms:R:1 pbc="T T T"
Si      -1.35638685      -1.35516510      -1.35721872       0.00000000
Si       1.35711990      -1.35676152       1.35756517       0.00000000
Si      -1.35780408       1.35802854       1.35739195       0.00000000
Si       1.35969372       1.35809730      -1.35739195       0.00000000
Si       2.71414206      -2.71379997       0.00024252       0.00000000
Si       2.71270854      -0.00115659      -2.71554609       0.00000000
Si       0.00215028      -2.71406061       2.71447209       0.00000000
Si      -2.71520091      -2.71425609      -0.00024252       0.00000000
Si       0.00153126       2.71541661       2.71467996       0.00000000
Si      -2.71562445       0.00366525       2.71461067       0.00000000
