10
Lattice="16.28999089631971 0.0 0.0 0.0 16.28999089631971 0.0 0.0 0.0 34.64500226677339" Properties=species:S:1:pos:R:3:initial_magmoms:R:1 pbc="T T T"
Si       1.35487188       1.35539345      -1.35784233       0.00000000
Si       1.35511623      -1.36086660       1.35881239       0.00000000
Si      -1.36019871      -1.35953082      -1.35739195       0.00000000
Si      -1.36617714       1.35588186       1.35808485       0.00000000
Si      -0.01350441      -2.69659773       2.72895371       0.00000000
Si       2.71223613      -0.00192222      -2.71436815       0.00000000
Si      -0.00232947       2.71271573      -2.71481854       0.00000000
Si      -2.71578735       2.71264731      -0.00027716       0.00000000
Si       2.71221984      -2.71679733      -0.00003465       0.00000000
Si       2.71510317       2.71438382      -0.00072755       0.00000000
