10
Lattice="16.28999089631971 0.0 0.0 0.0 16.28999089631971 0.0 0.0 0.0 34.64500226677339" Properties=species:S:1:pos:R:3:initial_magmoms:R:1 pbc="T T T"
Si       0.44592246       1.16066250       1.96974270       0.00000000
Si       1.68689466      -1.31533605      -1.05570310       0.00000000
Si      -0.61496379       1.71343107      -1.55008756       0.00000000
Si      -2.32723827      -0.39962628       0.41951657       0.00000000
Si      -2.09259711       1.65001410       1.69421085       0.00000000
Si      -2.51581131       2.72623154      -0.44581214       0.00000000
Si       0.49647033      -0.49277250       3.73660416       0.00000000
Si       1.02773610      -1.75211982      -3.31088614       0.00000000
Si       1.16067879       3.33531138      -1.71870488       0.00000000
Si       2.71971324       2.39769252       1.64262441       0.00000000
