10
Lattice="16.28999089631971 0.0 0.0 0.0 16.28999089631971 0.0 0.0 0.0 34.64500226677339" Properties=species:S:1:pos:R:3:initial_magmoms:R:1 pbc="T T T"
Si       1.64424744       1.26945901       1.06124630       0.00000000
Si      -1.38631158       1.33045040      -1.37218537       0.00000000
Si      -1.16812332      -1.21227592       1.68080322       0.00000000
Si       1.35389448      -1.40268973      -1.36799332       0.00000000
Si      -2.59923240      -2.51998825       0.11124516       0.00000000
Si      -0.02107926       2.66856313      -2.74572190       0.00000000
Si       2.69302070      -0.04545514      -2.74849350       0.00000000
Si      -2.74165587      -0.04421776      -2.74887460       0.00000000
Si      -0.02036250      -2.76096622      -2.74814705       0.00000000
Si      -2.61731430       2.88548077       0.09856509       0.00000000
