10
Lattice="16.28999089631971 0.0 0.0 0.0 16.28999089631971 0.0 0.0 0.0 34.64500226677339" Properties=species:S:1:pos:R:3:initial_magmoms:R:1 pbc="T T T"
Si      -0.16568559      -0.01005093      -2.31674724       0.00000000
Si      -1.99238103       0.85836897       1.00896696       0.00000000
Si       1.29756366       1.94399973       0.63216771       0.00000000
Si      -0.11460015      -2.45596904       0.47931387       0.00000000
Si      -1.13006988       0.93525777       3.23910165       0.00000000
Si      -3.55965822      -0.88401432       0.71524647       0.00000000
Si      -2.15273979      -2.58397586       1.68849442       0.00000000
Si       1.07013897       3.40783542      -1.29631277       0.00000000
Si      -1.56041910      -1.85168593      -2.97098383       0.00000000
Si       1.85596857       0.16044021      -3.37283144       0.00000000
