10
Lattice="16.28999089631971 0.0 0.0 0.0 16.28999089631971 0.0 0.0 0.0 34.64500226677339" Properties=species:S:1:pos:R:3:initial_magmoms:R:1 pbc="T T T"
Si       0.68751945       1.83992292       1.38463129       0.00000000
Si      -1.87102053      -0.79943501       1.39015371       0.00000000
Si       1.66009761      -1.84457209       0.08162367       0.00000000
Si      -0.01959687      -0.32039172      -3.28403625       0.00000000
Si       1.92295590       0.41422212       2.82374391       0.00000000
Si       3.27597343      -0.92254017       1.51761967       0.00000000
Si      -0.78467301      -2.31071111       2.82385131       0.00000000
Si      -2.80787472      -2.55440951       0.20060545       0.00000000
Si       0.66077127      -3.52004813       1.43164112       0.00000000
Si       1.50879609       3.56817789      -0.02085630       0.00000000
