10
Lattice="16.28999089631971 0.0 0.0 0.0 16.28999089631971 0.0 0.0 0.0 34.64500226677339" Properties=species:S:1:pos:R:3:initial_magmoms:R:1 pbc="T T T"
Si      -1.10136690      -1.47132909       1.47140871       0.00000000
Si       2.34479889       0.02796993      -0.30737063       0.00000000
Si      -0.84880674       2.18984841      -0.34336681       0.00000000
Si      -0.47928438      -1.48028859      -1.82038802       0.00000000
Si       0.54789786      -3.17677806       1.38074269       0.00000000
Si       0.16384482       2.99895642      -2.28400770       0.00000000
Si      -1.40631570      -0.32449680      -3.58187950       0.00000000
Si       3.18537918       2.18732346      -0.10764208       0.00000000
Si      -3.13870833       2.09437272      -0.93285185       0.00000000
Si      -3.44826720      -1.72835271       0.51132587       0.00000000
