10
Lattice="16.28999089631971 0.0 0.0 0.0 16.28999089631971 0.0 0.0 0.0 34.64500226677339" Properties=species:S:1:pos:R:3:initial_magmoms:R:1 pbc="T T T"
Si       0.02002041      -0.44194770      -2.27392599       0.00000000
Si      -1.79610282      -0.51385176       1.45242324       0.00000000
Si       1.10595158       2.11926384       0.12635039       0.00000000
Si       1.38770830      -1.89042192       0.55508254       0.00000000
Si       2.38470029      -0.58192767      -2.61909435       0.00000000
Si       2.73661316       1.57856616       1.73692816       0.00000000
Si      -1.40185224       1.04568768       3.15668115       0.00000000
Si      -0.82055988      -2.60130123      -2.47365454       0.00000000
Si       3.35509559      -1.42615692      -0.61110354       0.00000000
Si       0.44942385      -3.68110017      -0.74161133       0.00000000
