10
Lattice="16.28999089631971 0.0 0.0 0.0 16.28999089631971 0.0 0.0 0.0 34.64500226677339" Properties=species:S:1:pos:R:3:initial_magmoms:R:1 pbc="T T T"
Si       1.36266411      -1.35386190       1.36445953       0.00000000
Si      -1.35482301       1.36383138       1.36397450       0.00000000
Si      -1.34407161      -1.35029439      -1.40843792       0.00000000
Si       1.36536264       1.36151820      -1.38070805       0.00000000
Si       2.71545082      -2.71292031       0.00665184       0.00000000
Si      -2.71559187      -2.71301805       0.00273696       0.00000000
Si      -2.71507059       2.71617831       0.00543927       0.00000000
Si       0.00228060      -2.71233387       2.72088142       0.00000000
Si       2.71889778       2.71551042       0.00287554       0.00000000
Si      -2.71363707       0.00353493       2.72122787       0.00000000
