10
Lattice="16.28999089631971 0.0 0.0 0.0 16.28999089631971 0.0 0.0 0.0 34.64500226677339" Properties=species:S:1:pos:R:3:initial_magmoms:R:1 pbc="T T T"
Si      -1.31561298       1.92520107       0.42800460       0.00000000
Si       0.99184923       0.27841239      -2.16420521       0.00000000
Si      -1.54548117      -1.70189775      -0.76856516       0.00000000
Si       0.98038107       0.18582003       2.31335203       0.00000000
Si       2.71601500       1.10402217       1.04860087       0.00000000
Si      -1.60440210      -2.82328506       1.24580033       0.00000000
Si      -3.26362005      -0.17754471      -1.37838683       0.00000000
Si      -2.43858042       1.99821285      -1.68693539       0.00000000
Si      -0.40044078       2.12621967      -2.89611594       0.00000000
Si      -2.47088349       1.25322228       2.42570583       0.00000000
