10
Lattice="16.28999089631971 0.0 0.0 0.0 16.28999089631971 0.0 0.0 0.0 34.64500226677339" Properties=species:S:1:pos:R:3:initial_magmoms:R:1 pbc="T T T"
Si       0.68725881       2.24147046      -0.34700454       0.00000000
Si      -1.99958121       0.00337203       1.28848300       0.00000000
Si      -0.47586348      -1.27290060      -2.01051990       0.00000000
Si       1.83079630      -1.17315693       1.10857140       0.00000000
Si       1.25977045      -0.35469846      -3.27527105       0.00000000
Si      -0.37406727      -3.45375693      -1.07309490       0.00000000
Si       1.35894310      -3.39685596       0.44844516       0.00000000
Si       1.06539858       3.00026681       1.90904463       0.00000000
Si      -3.57065397       1.23084049      -0.01642174       0.00000000
Si      -1.58014629       0.62768628       3.53070880       0.00000000
