10
Lattice="16.28999089631971 0.0 0.0 0.0 16.28999089631971 0.0 0.0 0.0 34.64500226677339" Properties=species:S:1:pos:R:3:initial_magmoms:R:1 pbc="T T T"
Si       0.87695586       1.91316276       1.11802949       0.00000000
Si      -1.56489885       0.79203609      -1.62329249       0.00000000
Si       1.85062545      -1.28270718      -0.96839764       0.00000000
Si      -1.64209716      -1.25273358       1.40014390       0.00000000
Si       3.47227281      -0.57523248       0.69861686       0.00000000
Si      -0.45659241       3.63649815       0.05245256       0.00000000
Si      -1.24981767      -0.72296649      -3.37376685       0.00000000
Si      -3.23050248      -1.95981732      -0.19054762       0.00000000
Si      -0.53844966       1.76163318       3.33718171       0.00000000
Si      -0.87602733       3.01218390      -2.18977324       0.00000000
