10
Lattice="16.28999089631971 0.0 0.0 0.0 16.28999089631971 0.0 0.0 0.0 34.64500226677339" Properties=species:S:1:pos:R:3:initial_magmoms:R:1 pbc="T T T"
Si       1.16716221      -1.44580266      -1.60195116       0.00000000
Si      -0.82785780      -1.85756499       1.39141336       0.00000000
Si      -1.54531990       1.24550082      -1.58999862       0.00000000
Si       1.40470299       1.79857890       1.66164453       0.00000000
Si       2.54159838      -2.81126304      -0.21528416       0.00000000
Si      -2.69214241      -2.67103872      -0.26247068       0.00000000
Si       2.66668929       2.80969920      -0.17291330       0.00000000
Si       2.51305830      -0.11184714      -2.98529222       0.00000000
Si      -2.77944867       2.77617438      -0.23090907       0.00000000
Si      -0.20010636       2.59889031      -2.98078837       0.00000000
