10
Lattice="16.28999089631971 0.0 0.0 0.0 16.28999089631971 0.0 0.0 0.0 34.64500226677339" Properties=species:S:1:pos:R:3:initial_magmoms:R:1 pbc="T T T"
Si      -0.41943492      -0.62431425      -2.24222580       0.00000000
Si       0.89922429       2.19114251       0.01870831       0.00000000
Si       1.33354827      -1.72333539       1.06557693       0.00000000
Si      -2.34953928       0.10176363       1.21049706       0.00000000
Si      -1.10830644      -2.84446206      -1.67574505       0.00000000
Si      -2.93441544       1.96943561      -0.12932987       0.00000000
Si       0.45659241      -3.63649815      -0.05245256       0.00000000
Si      -1.09633329       3.47780816      -0.40752939       0.00000000
Si      -0.08185725      -1.87486497       3.28472915       0.00000000
Si       2.64554487       2.37258053      -1.62166417       0.00000000
