10
Lattice="16.28999089631971 0.0 0.0 0.0 16.28999089631971 0.0 0.0 0.0 34.64500226677339" Properties=species:S:1:pos:R:3:initial_magmoms:R:1 pbc="T T T"
Si       1.35607734      -1.35660744       1.35881239       0.00000000
Si      -1.35962856       1.35804680       1.35773840       0.00000000
Si       1.35654975       1.34729540      -1.37344645       0.00000000
Si      -1.35689184      -1.36421737      -1.36144195       0.00000000
Si      -2.72129500       0.03921980      -2.65327512       0.00000000
Si       0.05546745      -2.62222641      -2.77909198       0.00000000
Si       2.71192662      -0.00012380       2.71544215       0.00000000
Si       2.71124244       2.71684457       0.00062361       0.00000000
Si      -0.00224802       2.71404269       2.71519964       0.00000000
Si       2.71028133      -2.72060172      -0.00006929       0.00000000
