10
Lattice="16.28999089631971 0.0 0.0 0.0 16.28999089631971 0.0 0.0 0.0 34.64500226677339" Properties=species:S:1:pos:R:3:initial_magmoms:R:1 pbc="T T T"
Si      -0.80235648      -2.27256903      -0.04878019       0.00000000
Si      -1.20173841       1.12560642      -1.78498080       0.00000000
Si       2.40896357      -0.48615876      -0.29008277       0.00000000
Si      -0.41030438       1.08854667       2.30223098       0.00000000
Si       1.72377359       0.70159401       3.11971491       0.00000000
Si       2.80059146      -1.13578767       2.04138861       0.00000000
Si      -2.54867706      -2.45400705       1.59159229       0.00000000
Si       0.86326900      -3.78120548       0.90135953       0.00000000
Si      -1.18049625      -3.03136538      -2.30482935       0.00000000
Si      -1.47716973       3.18917475       1.89892828       0.00000000
