10
Lattice="16.28999089631971 0.0 0.0 0.0 16.28999089631971 0.0 0.0 0.0 34.64500226677339" Properties=species:S:1:pos:R:3:initial_magmoms:R:1 pbc="T T T"
Si       2.13407797      -0.38695266       0.81748393       0.00000000
Si      -1.06686535       2.10062808      -0.40330270       0.00000000
Si       0.41030438      -1.08854667      -2.30223098       0.00000000
Si      -0.60997972       0.34601589       2.55254126       0.00000000
Si       2.94041668       2.03165622       0.36990490       0.00000000
Si      -3.16922017       1.41086061      -1.28716649       0.00000000
Si       3.21089584      -2.22433434      -0.26084237       0.00000000
Si      -0.08282015       3.35417616      -2.16545243       0.00000000
Si      -2.39849140       2.12641515       2.53154638       0.00000000
Si      -0.39205210      -3.36111570      -2.35101117       0.00000000
