10
Lattice="16.28999089631971 0.0 0.0 0.0 16.28999089631971 0.0 0.0 0.0 34.64500226677339" Properties=species:S:1:pos:R:3:initial_magmoms:R:1 pbc="T T T"
Si       1.35504613       1.35597960       1.35662976       0.00000000
Si       1.35278671      -1.35905841      -1.35780769       0.00000000
Si      -1.36038351      -1.35847197       1.35642189       0.00000000
Si      -1.36266411       1.35386190      -1.36445953       0.00000000
Si       2.70133970       0.01259217      -2.71903830       0.00000000
Si       2.71170014      -0.00045612       2.71374454       0.00000000
Si       2.71153724      -2.71432125      -0.00058897       0.00000000
Si      -0.00327894       2.71419093       2.71388312       0.00000000
Si       2.71324769       2.71551042      -0.00114329       0.00000000
Si      -0.00363028      -2.71575477       2.71315558       0.00000000
