10
Lattice="16.28999089631971 0.0 0.0 0.0 16.28999089631971 0.0 0.0 0.0 34.64500226677339" Properties=species:S:1:pos:R:3:initial_magmoms:R:1 pbc="T T T"
Si      -0.98404520      -1.25354808       1.76214974       0.00000000
Si      -0.64755896       2.28291318       0.41525523       0.00000000
Si      -0.26238191      -0.97109577      -2.23488106       0.00000000
Si       2.43083469      -0.10150299       0.46268426       0.00000000
Si      -0.01568743       3.17757627      -1.64615820       0.00000000
Si      -3.08640002      -1.94331555       0.87828594       0.00000000
Si       0.97408841       2.99038788       2.08226973       0.00000000
Si       1.53139863      -0.04494411      -3.45805819       0.00000000
Si       2.99762895       2.19540330       0.85732571       0.00000000
Si      -0.70861388      -3.31711641      -1.92175935       0.00000000
