10
Lattice="16.28999089631971 0.0 0.0 0.0 16.28999089631971 0.0 0.0 0.0 34.64500226677339" Properties=species:S:1:pos:R:3:initial_magmoms:R:1 pbc="T T T"
Si      -1.83085786       0.90927522       1.10680451       0.00000000
Si       0.57459717       1.38525273      -1.83448854       0.00000000
Si       1.63317024       0.91427625       1.49548700       0.00000000
Si      -0.28377180      -2.31324516      -0.70509548       0.00000000
Si       3.13360956      -1.24343199      -1.20630501       0.00000000
Si       2.16259524       0.04704552      -2.89178531       0.00000000
Si       0.98108154       3.24169371       1.42817173       0.00000000
Si      -3.56386823       0.85237425      -0.41473555       0.00000000
Si       1.89078030      -3.13232265      -0.52345163       0.00000000
Si       1.41869610       3.34376685      -0.80788726       0.00000000
