10
Lattice="16.28999089631971 0.0 0.0 0.0 16.28999089631971 0.0 0.0 0.0 34.64500226677339" Properties=species:S:1:pos:R:3:initial_magmoms:R:1 pbc="T T T"
Si       0.45071172       0.98717400      -2.11480141       0.00000000
Si      -0.56679426      -2.29690629      -0.39464144       0.00000000
Si      -2.02354054       0.79498458       1.22494403       0.00000000
Si       2.06933499       0.21551670       1.43932742       0.00000000
Si      -3.64518791       0.08750988      -0.44207048       0.00000000
Si       2.94109434       2.31116004       0.56616894       0.00000000
Si      -1.18245852       0.07289775      -3.61028841       0.00000000
Si      -2.99762895      -2.19540330      -0.85732571       0.00000000
Si       1.13927373      -3.22370955      -1.83861130       0.00000000
Si       2.51574615       0.16457787      -2.95508176       0.00000000
