10
Lattice="16.28999089631971 0.0 0.0 0.0 16.28999089631971 0.0 0.0 0.0 34.64500226677339" Properties=species:S:1:pos:R:3:initial_magmoms:R:1 pbc="T T T"
Si      -0.96754455      -1.69290567      -1.36771616       0.00000000
Si       1.78483014       0.91681749      -1.28761687       0.00000000
Si       0.01609452      -1.13959953       2.11171800       0.00000000
Si      -1.60821396       1.91891313       0.09153215       0.00000000
Si      -1.51674561       0.31643325       3.22687196       0.00000000
Si       0.35764695       2.24197641      -2.77191354       0.00000000
Si      -2.38440151      -0.47548881      -2.78313852       0.00000000
Si      -2.34621775      -2.90843289       0.07559544       0.00000000
Si      -1.21388193       2.53452852       2.63863414       0.00000000
Si      -0.66653793      -3.46154355       1.68686610       0.00000000
