10
Lattice="16.28999089631971 0.0 0.0 0.0 16.28999089631971 0.0 0.0 0.0 34.64500226677339" Properties=species:S:1:pos:R:3:initial_magmoms:R:1 pbc="T T T"
Si      -1.87633370      -1.34592867       0.33782361       0.00000000
Si       1.70149506      -1.41801192       0.88667004       0.00000000
Si      -0.59808998       1.30176389       1.98380858       0.00000000
Si       0.28110806       0.35073999      -2.40786365       0.00000000
Si      -3.26862371       0.50187861      -0.39408712       0.00000000
Si      -0.15216792      -0.52031889       3.55062969       0.00000000
Si       2.99379705       0.09014886       2.18187417       0.00000000
Si       0.98872448       3.08956859       1.93901257       0.00000000
Si       0.72179817      -2.54580120       2.72247509       0.00000000
Si      -1.41094469      -3.40809606      -0.93274792       0.00000000
