10
Lattice="10.86 0.0 0.0 0.0 10.86 0.0 0.0 0.0 10.86" Properties=species:S:1:pos:R:3:initial_magmoms:R:1 pbc="T T T"
Si       1.30841280      -1.28408640      -1.38410700       0.00000000
Si      -1.40658720      -1.28408640       1.33089300       0.00000000
Si       1.30841280       1.43091360       1.33089300       0.00000000
Si       2.66591280      -2.64158640      -0.02660700       0.00000000
Si      -0.04908720      -2.64158640       2.68839300       0.00000000
Si       2.61876954       0.19301478      -2.71397916       0.00000000
Si       2.66591280       0.07341360       2.68839300       0.00000000
Si       2.58349626       2.78178900      -0.06033816       0.00000000
Si      -0.04908720      -2.64158640      -2.74160700       0.00000000
Si      -2.76408720      -2.64158640      -0.02660700       0.00000000
