10
Lattice="10.86 0.0 0.0 0.0 10.86 0.0 0.0 0.0 10.86" Properties=species:S:1:pos:R:3:initial_magmoms:R:1 pbc="T T T"
Si       1.40464326       1.23789882       1.32987216       0.00000000
Si      -1.31035674      -1.47710118       1.32987216       0.00000000
Si       1.40464326      -1.47710118      -1.38512784       0.00000000
Si      -0.03527328       2.58877422       2.65364100       0.00000000
Si       0.00217200       2.57064888      -2.72334048       0.00000000
Si      -2.61876954      -0.19301478       2.71397916       0.00000000
Si       2.76214326       2.59539882      -0.02762784       0.00000000
Si       2.76214326      -0.11960118       2.68737216       0.00000000
Si      -2.73194160      -0.18632502      -2.76666102       0.00000000
Si      -2.66785674      -2.83460118      -0.02762784       0.00000000
