10
Lattice="10.86 0.0 0.0 0.0 10.86 0.0 0.0 0.0 10.86" Properties=species:S:1:pos:R:3:initial_magmoms:R:1 pbc="T T T"
Si      -1.31252874       1.38224994      -1.37678736       0.00000000
Si       1.40247126      -1.33275006      -1.37678736       0.00000000
Si       1.40247126       1.38224994       1.33821264       0.00000000
Si      -0.00217200      -2.57064888       2.72334048       0.00000000
Si      -2.67002874       0.02474994      -2.73428736       0.00000000
Si       0.04497126      -2.69025006      -2.73428736       0.00000000
Si       2.75997126      -2.69025006      -0.01928736       0.00000000
Si       2.75997126       0.02474994       2.69571264       0.00000000
Si       0.04497126       2.73974994      -2.73428736       0.00000000
Si      -2.73411360      -2.75697390      -0.04332054       0.00000000
