10
Lattice="10.86 0.0 0.0 0.0 10.86 0.0 0.0 0.0 10.86" Properties=species:S:1:pos:R:3:initial_magmoms:R:1 pbc="T T T"
Si      -1.60674786      -0.19420938      -1.46469906       0.00000000
Si      -0.48298764       0.93887958       2.24638014       0.00000000
Si       2.19757530       1.11997008      -0.38354262       0.00000000
Si       0.78059508       2.39544450      -1.81049232       0.00000000
Si      -1.93440492       2.39544450       0.90450768       0.00000000
Si      -0.61084242       1.08956208      -3.13250184       0.00000000
Si       2.05567854      -1.68368010       2.22827652       0.00000000
Si      -3.37159560       1.05954504      -0.34683582       0.00000000
Si      -0.57690492       3.75294450      -0.45299232       0.00000000
Si       3.49559508      -0.31955550      -1.81049232       0.00000000
