10
Lattice="10.86 0.0 0.0 0.0 10.86 0.0 0.0 0.0 10.86" Properties=species:S:1:pos:R:3:initial_magmoms:R:1 pbc="T T T"
Si      -1.45141728      -1.25843508       1.37312754       0.00000000
Si       1.26358272       1.45656492       1.37312754       0.00000000
Si      -1.45141728       1.45656492      -1.34187246       0.00000000
Si       0.48298764      -0.93887958      -2.24638014       0.00000000
Si       2.53866618      -2.62255968      -0.01810362       0.00000000
Si       2.68056294       0.18109050      -2.62992276       0.00000000
Si      -0.09391728      -2.61593508       2.73062754       0.00000000
Si       2.62108272       0.09906492       2.73062754       0.00000000
Si       2.62108272       2.81406492       0.01562754       0.00000000
Si      -2.88860796       0.12066546      -2.59321596       0.00000000
