10
Lattice="10.86 0.0 0.0 0.0 10.86 0.0 0.0 0.0 10.86" Properties=species:S:1:pos:R:3:initial_magmoms:R:1 pbc="T T T"
Si      -1.27508346      -1.35087540       1.39123116       0.00000000
Si       1.43991654      -1.35087540      -1.32376884       0.00000000
Si       1.43991654       1.36412460       1.39123116       0.00000000
Si      -2.05567854       1.68368010      -2.22827652       0.00000000
Si      -2.53866618       2.62255968       0.01810362       0.00000000
Si       0.03527328      -2.58877422      -2.65364100       0.00000000
Si      -2.58349626      -2.78178900       0.06033816       0.00000000
Si      -2.63258346       0.00662460       2.74873116       0.00000000
Si       0.14189676       2.80365018      -2.61181914       0.00000000
Si       0.08241654      -2.70837540       2.74873116       0.00000000
