10
Lattice="10.86 0.0 0.0 0.0 10.86 0.0 0.0 0.0 10.86" Properties=species:S:1:pos:R:3:initial_magmoms:R:1 pbc="T T T"
Si      -1.36538436       0.95655966      -1.27172772       0.00000000
Si       1.34961564       0.95655966       1.44327228       0.00000000
Si       1.34961564      -1.75844034      -1.27172772       0.00000000
Si      -1.22636550      -2.31307140       1.87809582       0.00000000
Si      -0.00788436       2.31405966      -2.62922772       0.00000000
Si       2.70711564       2.31405966       0.08577228       0.00000000
Si      -2.72288436       2.31405966       0.08577228       0.00000000
Si      -0.00788436       2.31405966       2.80077228       0.00000000
Si       2.70711564      -0.40094034      -2.62922772       0.00000000
Si      -2.72288436      -0.40094034      -2.62922772       0.00000000
