10
Lattice="10.86 0.0 0.0 0.0 10.86 0.0 0.0 0.0 10.86" Properties=species:S:1:pos:R:3:initial_magmoms:R:1 pbc="T T T"
Si       1.59799470      -1.13258940       1.15656828       0.00000000
Si       1.35750000       1.35750000      -1.35750000       0.00000000
Si      -1.35750000      -1.35750000      -1.35750000       0.00000000
Si      -1.34961564       1.75844034       1.27172772       0.00000000
Si       2.71500000       2.71500000       0.00000000       0.00000000
Si      -2.71500000       0.00000000      -2.71500000       0.00000000
Si      -2.71500000       2.71500000       0.00000000       0.00000000
Si       0.00000000       2.71500000      -2.71500000       0.00000000
Si       2.71500000      -2.71500000       0.00000000       0.00000000
Si       0.00000000      -2.71500000      -2.71500000       0.00000000
