10
Lattice="10.86 0.0 0.0 0.0 10.86 0.0 0.0 0.0 10.86" Properties=species:S:1:pos:R:3:initial_magmoms:R:1 pbc="T T T"
Si      -1.23692142      -1.14394896       1.45061364       0.00000000
Si      -1.23692142       1.57105104      -1.26438636       0.00000000
Si       1.47807858       1.57105104       1.45061364       0.00000000
Si      -2.40674976      -2.44454256       0.08811804       0.00000000
Si       2.67142968      -2.30336256      -0.08491434       0.00000000
Si      -2.43197754       0.10587414      -2.59241232       0.00000000
Si       2.69133606       0.36592770      -2.59802694       0.00000000
Si       0.12057858      -2.50144896       2.80811364       0.00000000
Si      -2.59442142       0.21355104       2.80811364       0.00000000
Si      -2.59442142       2.92855104       0.09311364       0.00000000
