10
Lattice="10.86 0.0 0.0 0.0 10.86 0.0 0.0 0.0 10.86" Properties=species:S:1:pos:R:3:initial_magmoms:R:1 pbc="T T T"
Si      -1.21325748       1.20512334      -1.38135942       0.00000000
Si       1.50174252       1.20512334       1.33364058       0.00000000
Si       1.50174252      -1.50987666      -1.38135942       0.00000000
Si      -2.57075748       2.56262334      -0.02385942       0.00000000
Si      -0.01990638      -2.66929026       2.51311260       0.00000000
Si       0.14424252       2.56262334       2.69114058       0.00000000
Si       0.14424252       2.56262334      -2.73885942       0.00000000
Si      -2.69133606      -0.36592770       2.59802694       0.00000000
Si      -2.56287312       0.24856368      -2.82463170       0.00000000
Si       2.85924252       2.56262334      -0.02385942       0.00000000
