10
Lattice="16.290000149 0.0 0.0 0.0 16.290000149 0.0 0.0 0.0 29.1751946751" Properties=species:S:1:pos:R:3:initial_magmoms:R:1 pbc="T T T"
Si       1.22841262      -1.53391528       1.23936227       0.00000000
Si      -1.39215970      -1.35008263      -1.28989371       0.00000000
Si      -1.06750000       1.46018674       1.47821959       0.00000000
Si       1.36598167       1.32827032      -1.35968077       0.00000000
Si       0.74753182       2.21659661       2.86249505       0.00000000
Si      -2.38518182       0.09718614       2.86021939       0.00000000
Si      -0.03187953      -2.69625566      -2.62757638       0.00000000
Si      -0.02608029       2.61138476      -2.72044103       0.00000000
Si      -2.50546718       2.81983161       0.19141845       0.00000000
Si      -2.74418084       0.00863370      -2.59813861       0.00000000
