10
Lattice="16.290000149 0.0 0.0 0.0 16.290000149 0.0 0.0 0.0 29.1751946751" Properties=species:S:1:pos:R:3:initial_magmoms:R:1 pbc="T T T"
Si      -1.07527033      -1.16642917       1.70724487       0.00000000
Si       0.88334155      -1.77745079      -1.27912806       0.00000000
Si       1.87589126       1.45863919       0.15585389       0.00000000
Si      -1.60816510       1.29111283      -1.21132491       0.00000000
H        0.47933325       2.30190734       1.79089015       0.00000000
H       -1.23137740      -0.37058121       2.98298860       0.00000000
H        2.59064759       1.54378702       1.48207071       0.00000000
Si       2.00542934      -0.33998859      -2.83218202       0.00000000
Si      -3.28375452      -1.07650837       0.90682340       0.00000000
Si      -0.29048328       2.65411343      -2.59332470       0.00000000
