10
Lattice="16.290000149 0.0 0.0 0.0 16.290000149 0.0 0.0 0.0 29.1751946751" Properties=species:S:1:pos:R:3:initial_magmoms:R:1 pbc="T T T"
Si       1.36829485       1.34908894       1.33782855       0.00000000
Si       1.44324514      -1.33100867      -1.28257073       0.00000000
Si      -1.35014779      -1.38800087       1.33450258       0.00000000
Si      -1.37714032       1.33967332      -1.35895139       0.00000000
Si       0.11850975      -2.66766085      -2.61910099       0.00000000
Si       0.03422529       2.74349667      -2.61621264       0.00000000
Si       0.00283446       2.69693984       2.68741471       0.00000000
Si       2.69338862      -0.03473028       2.69739262       0.00000000
Si      -2.71370225      -0.02537982       2.67895390       0.00000000
Si      -2.79692787      -0.08902485      -2.59471928       0.00000000
