10
Lattice="16.290000149 0.0 0.0 0.0 16.290000149 0.0 0.0 0.0 29.1751946751" Properties=species:S:1:pos:R:3:initial_magmoms:R:1 pbc="T T T"
Si       1.13037940      -0.06292827      -1.00499793       0.00000000
H        0.67139236       0.92536975       1.61624743       0.00000000
H       -0.91525366       1.76893112       0.44390059       0.00000000
Si      -2.27338355       1.19234656       0.17152097       0.00000000
Si      -2.73375524      -1.01537200       0.77967790       0.00000000
Si       0.13623327       0.66974707       3.00221506       0.00000000
Si       1.34545627      -2.19701603      -1.91809400       0.00000000
Si       3.19042911       0.63737884      -0.10430132       0.00000000
Si       0.90942184       1.45132498      -2.84087623       0.00000000
Si      -1.66185695      -0.92621683       2.88207161       0.00000000
