10
Lattice="16.290000149 0.0 0.0 0.0 16.290000149 0.0 0.0 0.0 29.1751946751" Properties=species:S:1:pos:R:3:initial_magmoms:R:1 pbc="T T T"
Si      -1.51884703       1.31830410       1.19717494       0.00000000
Si       1.37551132       1.28104887      -1.42240744       0.00000000
Si      -1.22564332      -1.43341902      -1.42958454       0.00000000
Si       0.98999218      -0.85301445       1.99450383       0.00000000
Si      -0.07110585       2.63996068       2.40759541       0.00000000
Si      -0.76108510      -1.17988634       3.48170938       0.00000000
Si       1.10421766      -3.15807391       1.75345838       0.00000000
Si      -2.67934664      -0.12180359       2.70054354       0.00000000
Si      -2.56789046      -2.81197657      -0.11798449       0.00000000
Si      -2.62850555      -0.09202547      -2.78824418       0.00000000
