10
Lattice="16.290000149 0.0 0.0 0.0 16.290000149 0.0 0.0 0.0 29.1751946751" Properties=species:S:1:pos:R:3:initial_magmoms:R:1 pbc="T T T"
Si      -1.33762078       1.15564519       1.55560096       0.00000000
Si      -1.30816846      -1.44637282      -1.37034431       0.00000000
Si       1.42882849      -1.36580248       1.33287169       0.00000000
Si       0.83300545       1.99803368      -1.08607784       0.00000000
H        1.91941814       0.28637820      -1.87513352       0.00000000
Si      -0.91158841       3.54250488      -0.63826865       0.00000000
Si      -2.74411569       2.51962319       0.30209747       0.00000000
Si      -2.70992297      -0.02282229      -2.59190971       0.00000000
Si       0.08478945       2.61663014       2.77868930       0.00000000
Si      -2.63467946      -2.82843273       0.00447256       0.00000000
