10
Lattice="16.290000149 0.0 0.0 0.0 16.290000149 0.0 0.0 0.0 29.1751946751" Properties=species:S:1:pos:R:3:initial_magmoms:R:1 pbc="T T T"
Si      -1.25864686      -1.36816453       1.42548251       0.00000000
Si      -1.45362187       1.41631777      -1.21546779       0.00000000
Si       0.95737960      -1.27125532      -1.75395435       0.00000000
Si       1.38784285       1.37845981       1.34298673       0.00000000
Si       2.35124975       0.16330725      -2.93021068       0.00000000
Si      -2.68534136       0.00791694       2.71904062       0.00000000
Si      -2.06896034      -3.22719564       0.24426669       0.00000000
Si       2.73759968       0.01674612       2.71834041       0.00000000
Si      -0.18956673       2.89968519      -2.54115946       0.00000000
Si       0.02484225       2.72720666       2.73267710       0.00000000
