10
Lattice="16.290000149 0.0 0.0 0.0 16.290000149 0.0 0.0 0.0 29.1751946751" Properties=species:S:1:pos:R:3:initial_magmoms:R:1 pbc="T T T"
H       -0.15610707       0.79584796       1.27574374       0.00000000
Si       1.07527033       1.16642917      -1.70724487       0.00000000
Si      -2.20848419       0.08992080      -0.80042147       0.00000000
Si       0.85403584      -2.07879950       0.79219406       0.00000000
H       -1.46139220      -1.87634738       1.69930921       0.00000000
H       -1.56123361       2.82815580       0.82122338       0.00000000
Si      -2.74695015      -1.91045864       0.88520458       0.00000000
Si       1.95861188      -0.61102162      -2.98637293       0.00000000
Si       0.70996708      -1.66003247       3.15135865       0.00000000
Si      -2.75661012       2.46208691      -0.06990377       0.00000000
