10
Lattice="16.290000149 0.0 0.0 0.0 16.290000149 0.0 0.0 0.0 29.1751946751" Properties=species:S:1:pos:R:3:initial_magmoms:R:1 pbc="T T T"
Si      -1.47595546      -1.37968156       1.17027541       0.00000000
Si       1.34425081      -1.34265439      -1.37248868       0.00000000
Si      -1.33628500       1.34550514      -1.38197062       0.00000000
Si       1.33113736       1.29772657       1.43553628       0.00000000
H       -0.81306649      -2.22764123       2.23490744       0.00000000
Si       2.66209553      -2.67817376       0.02409871       0.00000000
Si       2.70637175       2.66499515       0.08160302       0.00000000
Si      -2.90688537      -0.15035670       2.45576366       0.00000000
Si      -0.02933829      -2.73859338      -2.65972745       0.00000000
Si       0.01596420       2.67243968      -2.75092911       0.00000000
