10
Lattice="16.290000149 0.0 0.0 0.0 16.290000149 0.0 0.0 0.0 29.1751946751" Properties=species:S:1:pos:R:3:initial_magmoms:R:1 pbc="T T T"
Si       1.37953495      -1.33327135      -1.35084069       0.00000000
Si      -1.29723787       1.30134295      -1.46112292       0.00000000
Si       1.38753334       1.35795070       1.33345227       0.00000000
Si      -1.35013150      -1.39300678       1.34290504       0.00000000
Si      -2.77767309       0.04999401       2.46714199       0.00000000
Si      -2.65606823       2.67165776      -0.19652411       0.00000000
Si       2.71114472      -0.01879866       2.66506651       0.00000000
Si       0.01663209      -2.68113854      -2.71784444       0.00000000
Si      -2.71041167      -2.70073541      -0.04729299       0.00000000
Si       2.72106533      -2.69480585       0.01642563       0.00000000
