10
Lattice="16.290000149 0.0 0.0 0.0 16.290000149 0.0 0.0 0.0 29.1751946751" Properties=species:S:1:pos:R:3:initial_magmoms:R:1 pbc="T T T"
Si      -1.29868923      -1.28935514       1.47304099       0.00000000
Si      -1.44979527       1.38482920      -1.22587166       0.00000000
Si       1.36139775       1.39546657       1.31806236       0.00000000
Si       1.43291736      -1.30724971      -1.35103324       0.00000000
Si      -2.62342462      -2.62600732       0.13651074       0.00000000
Si      -0.12815498       2.71072118      -2.59082381       0.00000000
Si       0.08650389      -2.52198980      -2.83193403       0.00000000
Si       2.71156672      -2.68066613       0.03599636       0.00000000
Si       2.65455172       0.04155579       2.74878473       0.00000000
Si       0.01181440       2.72178209       2.72576550       0.00000000
