10
Lattice="16.290000149 0.0 0.0 0.0 16.290000149 0.0 0.0 0.0 29.1751946751" Properties=species:S:1:pos:R:3:initial_magmoms:R:1 pbc="T T T"
Si       1.38175039       1.31615056      -1.36253994       0.00000000
Si       1.35576784      -1.36953289       1.33765350       0.00000000
Si      -1.37213929      -1.32797710      -1.36303592       0.00000000
Si      -1.36816453       1.37790595       1.32481641       0.00000000
Si      -0.05240493       2.63523332      -2.64394367       0.00000000
Si       0.04709439      -2.65932623      -2.66401620       0.00000000
Si       2.72448623      -0.00519651       2.66331600       0.00000000
Si      -2.72904743       0.01591533       2.66839248       0.00000000
Si      -0.01423746       2.73214253       2.68496399       0.00000000
Si      -0.00218286      -2.72376947       2.69380407       0.00000000
