10
Lattice="16.290000149 0.0 0.0 0.0 16.290000149 0.0 0.0 0.0 29.1751946751" Properties=species:S:1:pos:R:3:initial_magmoms:R:1 pbc="T T T"
Si      -1.43415532       1.31908276      -1.28140373       0.00000000
Si      -1.38175039      -1.31615056       1.36253994       0.00000000
Si       1.33485148       1.40532202       1.33724505       0.00000000
Si       1.34635222      -1.28010079      -1.45940159       0.00000000
Si      -0.07794765       2.65911446      -2.59560620       0.00000000
Si       2.68596038      -2.61583193      -0.03778188       0.00000000
Si      -0.02598255      -2.68568345       2.70019344       0.00000000
Si      -2.75388969      -2.64412766      -0.00049598       0.00000000
Si       2.69806385       0.06735915       2.70098117       0.00000000
Si      -2.74991493       0.06175539       2.68735636       0.00000000
