10
Lattice="16.290000149 0.0 0.0 0.0 16.290000149 0.0 0.0 0.0 29.1751946751" Properties=species:S:1:pos:R:3:initial_magmoms:R:1 pbc="T T T"
Si      -2.19471914       0.72021349       0.46726992       0.00000000
Si      -0.27025110      -2.03165624       1.19533690       0.00000000
Si       1.57666024       1.30624624       1.20910759       0.00000000
Si      -0.28453743       0.88813081      -2.24106340       0.00000000
H        2.24769422      -0.95281840      -1.63217709       0.00000000
H        0.81104653      -1.86769739      -2.18408425       0.00000000
H        1.61525125      -2.61951347      -0.52982154       0.00000000
H        1.04249485      -2.49417821       1.79835900       0.00000000
Si      -2.14984019       2.86631838      -0.51281240       0.00000000
Si      -0.39876291       3.19319026      -2.00001795       0.00000000
