10
Lattice="16.290000149 0.0 0.0 0.0 16.290000149 0.0 0.0 0.0 29.1751946751" Properties=species:S:1:pos:R:3:initial_magmoms:R:1 pbc="T T T"
Si       1.36321237      -1.33796287       1.36373612       0.00000000
Si       1.35615880       1.37021707      -1.34512235       0.00000000
Si      -1.35588187       1.35114148       1.36630354       0.00000000
Si      -1.33485148      -1.40532202      -1.33724505       0.00000000
Si       2.70707222      -2.67066407      -0.02121037       0.00000000
Si      -2.76900681      -0.08623926      -2.61864877       0.00000000
Si       0.00788436      -2.72666910       2.68861089       0.00000000
Si       0.00961110       2.71477739      -2.70976291       0.00000000
Si      -2.72494235       2.69964398       0.02579087       0.00000000
Si       2.71332758       2.71894763       0.02158964       0.00000000
