10
Lattice="16.290000149 0.0 0.0 0.0 16.290000149 0.0 0.0 0.0 29.1751946751" Properties=species:S:1:pos:R:3:initial_magmoms:R:1 pbc="T T T"
Si       1.37168317      -1.34672689      -1.33628227       0.00000000
Si       1.37609776       1.33807690       1.34369277       0.00000000
Si      -1.35659863      -1.36396171       1.34967368       0.00000000
Si      -1.34602642       1.35900955      -1.36720797       0.00000000
Si      -0.01394424      -2.69741225      -2.66010672       0.00000000
Si      -0.00013032       2.70210377       2.66057353       0.00000000
Si      -2.72000648      -0.00698841       2.68864007       0.00000000
Si       2.74292652       0.01167993      -2.67285628       0.00000000
Si      -2.69213429       0.00099369      -2.72884348       0.00000000
Si       0.00498474      -2.71296920       2.70976291       0.00000000
