10
Lattice="16.290000149 0.0 0.0 0.0 16.290000149 0.0 0.0 0.0 29.1751946751" Properties=species:S:1:pos:R:3:initial_magmoms:R:1 pbc="T T T"
Si       1.41260854      -1.23204529       1.38156217       0.00000000
Si      -1.43796230       1.24442569       1.35970995       0.00000000
Si      -1.32923404      -1.35899326      -1.39078153       0.00000000
Si       1.36603543       1.42436503      -1.30766140       0.00000000
H       -1.22397034      -1.48695121       3.02581779       0.00000000
Si      -0.01377971       2.68060097       2.52549238       0.00000000
Si       2.57245655      -2.64331316      -0.07635148       0.00000000
Si      -0.05470834      -2.42015645       2.79483777       0.00000000
Si       2.56515863       0.02282229      -2.78354697       0.00000000
Si      -2.72769048       2.65727369      -0.00032093       0.00000000
