10
Lattice="16.290000149 0.0 0.0 0.0 16.290000149 0.0 0.0 0.0 29.1751946751" Properties=species:S:1:pos:R:3:initial_magmoms:R:1 pbc="T T T"
Si       0.61937839       0.51885279      -2.18069993       0.00000000
Si      -2.30278700      -0.06079428       0.44923965       0.00000000
Si       0.77177134       2.04613805       0.87858181       0.00000000
Si       1.22122873      -1.87026795       0.95300773       0.00000000
Si       1.69606595       1.00579348       2.71580217       0.00000000
Si       3.02834361      -0.54442810       1.56574517       0.00000000
Si       1.30601818      -1.53097657      -2.94622786       0.00000000
Si      -0.24314454      -0.02327841       3.61477744       0.00000000
Si      -2.44685576       0.35797275       2.80840424       0.00000000
Si      -3.15682284       2.01800522      -0.34295441       0.00000000
