10
Lattice="16.290000149 0.0 0.0 0.0 16.290000149 0.0 0.0 0.0 29.1751946751" Properties=species:S:1:pos:R:3:initial_magmoms:R:1 pbc="T T T"
Si       1.44546058      -1.19268865      -1.35817066       0.00000000
Si      -1.34562406      -1.46129446       1.23445675       0.00000000
Si      -1.35830094       1.24146091      -1.45640355       0.00000000
Si       1.42578226       1.35988921       1.27934571       0.00000000
Si      -2.70629030      -0.00301365       2.52108576       0.00000000
Si       0.08734698      -2.54040923      -2.69786643       0.00000000
Si       0.09611100       2.67421529       2.69870726       0.00000000
Si      -2.52895182       2.83289162      -0.16922313       0.00000000
Si       2.75397114      -0.03570768       2.64891395       0.00000000
Si       0.03958470      -2.80130988       2.60585137       0.00000000
