10
Lattice="16.290000149 0.0 0.0 0.0 16.290000149 0.0 0.0 0.0 29.1751946751" Properties=species:S:1:pos:R:3:initial_magmoms:R:1 pbc="T T T"
Si      -1.25693641       1.10711565      -1.59932582       0.00000000
Si      -1.89749180      -0.01234945       1.33669072       0.00000000
Si       1.57503124       1.68922252       0.43558566       0.00000000
Si       0.42775911      -2.29158111       0.30718562       0.00000000
H        1.79149277       0.52059908      -2.34189288       0.00000000
H       -2.07586730       1.37684547       1.94429332       0.00000000
Si      -1.06298767      -1.25654708       3.05021992       0.00000000
Si       2.03753693      -2.48539953      -1.36589509       0.00000000
Si       0.84380572       2.32500493       2.61485425       0.00000000
Si      -2.58921407       2.65733723      -0.44926882       0.00000000
