10
Lattice="16.290000149 0.0 0.0 0.0 16.290000149 0.0 0.0 0.0 29.1751946751" Properties=species:S:1:pos:R:3:initial_magmoms:R:1 pbc="T T T"
Si       1.37639098       1.34180731       1.33184764       0.00000000
Si       1.37622808      -1.36402687      -1.31688076       0.00000000
Si      -1.35783667      -1.34926813       1.36023510       0.00000000
Si      -1.35063649       1.37565793      -1.34229236       0.00000000
Si      -0.05603760       2.66346389       2.61648981       0.00000000
Si       0.00013032      -2.70210377      -2.66057353       0.00000000
Si      -2.71461449       0.02010186      -2.69012800       0.00000000
Si       2.73417879      -0.00979029      -2.67303134       0.00000000
Si       0.00096111      -2.67664250       2.74036769       0.00000000
Si       0.01024641       2.73764856      -2.68586842       0.00000000
