10
Lattice="16.290000149 0.0 0.0 0.0 16.290000149 0.0 0.0 0.0 29.1751946751" Properties=species:S:1:pos:R:3:initial_magmoms:R:1 pbc="T T T"
Si       1.21375162      -1.41426523       1.45109570       0.00000000
Si      -1.48533850      -1.25110459      -1.37721506       0.00000000
Si      -1.48199905       1.29969326       1.33806195       0.00000000
Si       1.61668477       1.48738779      -0.93774911       0.00000000
Si       2.55267560      -2.77257432       0.10926110       0.00000000
H        1.15746967      -1.11019609      -3.45443058       0.00000000
Si       0.88557328       3.67756527      -0.53761131       0.00000000
Si      -2.79709077      -2.61770528       0.10896935       0.00000000
H        3.06090732      -0.69155938      -2.20873729       0.00000000
Si      -0.18419103       2.58336271       2.84412343       0.00000000
