10
Lattice="16.290000149 0.0 0.0 0.0 16.290000149 0.0 0.0 0.0 29.1751946751" Properties=species:S:1:pos:R:3:initial_magmoms:R:1 pbc="T T T"
Si      -1.38953701      -1.34511418      -1.27578750       0.00000000
Si       1.32998647      -1.40848228       1.31057892       0.00000000
Si      -1.42493518       1.36081774       1.26955860       0.00000000
Si       1.29603241       1.31388625      -1.46838755       0.00000000
Si       2.62703131       2.67502979      -0.09093908       0.00000000
Si       2.66452600      -0.03046230       2.65488437       0.00000000
Si      -0.06897186       2.71130762       2.62337515       0.00000000
Si      -0.13162320      -2.74543518      -2.64105824       0.00000000
Si      -2.75025702      -0.02520063       2.65211272       0.00000000
Si       2.67956982      -2.73479781      -0.09712422       0.00000000
