10
Lattice="16.290000149 0.0 0.0 0.0 16.290000149 0.0 0.0 0.0 29.1751946751" Properties=species:S:1:pos:R:3:initial_magmoms:R:1 pbc="T T T"
Si       1.71944210      -1.62984709      -0.10328019       0.00000000
Si      -2.05796459      -1.00874197      -0.72599554       0.00000000
Si       1.39553173       1.73899010      -0.91195824       0.00000000
Si      -1.00421335       1.24045093       1.84524354       0.00000000
H        0.80309701      -1.46816884      -2.64595676       0.00000000
H       -0.60202954       0.56413900      -3.10047711       0.00000000
Si      -2.35949086       2.64981287       0.53358514       0.00000000
Si       2.15842502      -1.87670576       2.18056601       0.00000000
Si      -3.46853362       0.94346794      -0.71447134       0.00000000
Si       3.59056038      -0.73399483      -1.37879053       0.00000000
