10
Lattice="16.290000149 0.0 0.0 0.0 16.290000149 0.0 0.0 0.0 29.1751946751" Properties=species:S:1:pos:R:3:initial_magmoms:R:1 pbc="T T T"
Si      -1.31274595       0.46252197      -0.60302210       0.00000000
H        0.57275641      -0.12533526      -2.32818054       0.00000000
Si       1.75948292      -0.63656434      -1.53020979       0.00000000
Si       1.06621309      -2.49598640      -0.11004883       0.00000000
Si      -2.56919366       0.70457509       1.33712835       0.00000000
Si      -2.29377863      -1.52972875      -1.47880309       0.00000000
Si       0.43582266      -2.16226946       2.22069912       0.00000000
Si      -1.34837218      -0.62009515       2.85330486       0.00000000
Si       3.05812173       1.03151539      -0.35398264       0.00000000
Si      -1.04249485       2.49417821      -1.79835900       0.00000000
