10
Lattice="16.290000149 0.0 0.0 0.0 16.290000149 0.0 0.0 0.0 29.1751946751" Properties=species:S:1:pos:R:3:initial_magmoms:R:1 pbc="T T T"
Si      -2.07433604       0.72392924      -0.84920239       0.00000000
Si      -0.76356118      -1.50112026       1.71774794       0.00000000
Si       1.06546375      -0.67759559      -2.06216111       0.00000000
Si       0.93687049       2.07326416       0.82055235       0.00000000
H       -1.37855755       2.27571628       1.72766750       0.00000000
Si      -1.28888110       1.29861926      -2.99460033       0.00000000
Si      -2.66411549       2.24160502       0.91356287       0.00000000
H        0.42194358      -3.59503687      -0.52594123       0.00000000
Si      -2.29573343      -2.82269539       0.53098854       0.00000000
Si      -3.33751478      -1.28609225      -0.94746445       0.00000000
