10
Lattice="16.290000149 0.0 0.0 0.0 16.290000149 0.0 0.0 0.0 29.1751946751" Properties=species:S:1:pos:R:3:initial_magmoms:R:1 pbc="T T T"
Si      -1.36068416      -1.34812783       1.35472099       0.00000000
Si      -1.38883817       1.34745994      -1.33222691       0.00000000
Si       1.31831713      -1.36348930      -1.39081071       0.00000000
Si       1.36707310       1.36231642       1.35369986       0.00000000
Si      -0.01316232       2.69549003      -2.68242575       0.00000000
Si       0.00874773      -2.69430086       2.70952950       0.00000000
Si       2.68524362      -2.72140742      -0.06342687       0.00000000
Si       2.68710068      -0.02028105      -2.73391997       0.00000000
Si      -2.70583418      -2.72073953      -0.00565999       0.00000000
Si      -2.70091009       0.01524744       2.72735555       0.00000000
