10
Lattice="16.290000149 0.0 0.0 0.0 16.290000149 0.0 0.0 0.0 29.1751946751" Properties=species:S:1:pos:R:3:initial_magmoms:R:1 pbc="T T T"
Si      -1.42159573       1.36818082      -1.25631306       0.00000000
Si      -1.29935557      -1.24269895       1.49770862       0.00000000
Si       1.18003132      -1.45114579      -1.41415086       0.00000000
Si       1.85706002       0.92944225       1.10556483       0.00000000
Si       3.45678690      -0.84781306       1.01488832       0.00000000
Si      -0.04391784       2.68809437      -2.61879465       0.00000000
Si       2.57209328      -2.73426024      -0.05339061       0.00000000
Si       2.56865609      -0.11738574      -2.75267962       0.00000000
Si      -2.77702149      -0.01440036      -2.60516983       0.00000000
Si       0.13861161      -2.60234381       2.78450976       0.00000000
