10
Lattice="16.290000149 0.0 0.0 0.0 16.290000149 0.0 0.0 0.0 29.1751946751" Properties=species:S:1:pos:R:3:initial_magmoms:R:1 pbc="T T T"
Si      -1.35527751       1.40936194      -1.31165840       0.00000000
Si       1.17232615       1.46909737       1.44959872       0.00000000
Si      -1.48852809      -1.19804806       1.43516284       0.00000000
Si       1.00421335      -1.24045093      -1.84524354       0.00000000
Si      -2.46432027      -0.29698299      -2.55971488       0.00000000
Si      -1.05375124      -2.24919290      -2.57123908       0.00000000
Si       2.39974508       0.49853916      -2.75720177       0.00000000
Si      -0.12988017      -2.53759106       2.81543546       0.00000000
Si       2.54625734       0.11795589       2.81009640       0.00000000
Si       2.47220300       2.95336074       0.17634742       0.00000000
