10
Lattice="16.290000149 0.0 0.0 0.0 16.290000149 0.0 0.0 0.0 29.1751946751" Properties=species:S:1:pos:R:3:initial_magmoms:R:1 pbc="T T T"
Si       1.23009049       1.00901890      -1.73604078       0.00000000
Si       1.43226568      -1.63465411       0.93372293       0.00000000
Si      -1.84686248      -1.18546404      -1.00295567       0.00000000
Si      -0.09128916       1.71198128       1.81907339       0.00000000
H       -2.24507153       1.45955143       0.47476794       0.00000000
Si       2.54773973       2.47912625      -0.50759004       0.00000000
H        3.28469934       1.40880808       0.44830604       0.00000000
Si       0.63130267       0.38649654       3.61594445       0.00000000
Si      -2.90796051       2.30751110      -0.58986409       0.00000000
Si       0.12856068      -3.07240806       2.20616987       0.00000000
