10
Lattice="16.290000149 0.0 0.0 0.0 16.290000149 0.0 0.0 0.0 29.1751946751" Properties=species:S:1:pos:R:3:initial_magmoms:R:1 pbc="T T T"
Si       1.31329981      -1.09654507      -1.56361538       0.00000000
Si      -1.33530760       1.40924791      -1.38062856       0.00000000
Si      -1.32572908      -1.86369005       0.76304804       0.00000000
Si       1.10863225       1.66276919       1.37838207       0.00000000
H        2.05025942      -2.16686324      -0.60771931       0.00000000
H        2.95494738      -0.00605988       1.61146270       0.00000000
Si      -2.44620416       2.51799419       0.37813970       0.00000000
Si      -0.57383155       3.34550991       1.62934710       0.00000000
Si      -0.00434943      -2.56665242      -2.79206613       0.00000000
Si      -3.10430388      -0.88801678       2.00433587       0.00000000
