10
Lattice="16.290000149 0.0 0.0 0.0 16.290000149 0.0 0.0 0.0 29.1751946751" Properties=species:S:1:pos:R:3:initial_magmoms:R:1 pbc="T T T"
Si      -2.19442429      -0.18282267      -0.66589464       0.00000000
Si       1.32876065      -0.26046081      -1.90020960       0.00000000
Si       0.52007617       0.90489322       2.09591681       0.00000000
Si       0.79029470      -2.26084025      -0.21458356       0.00000000
Si       0.78063473       2.11170530      -1.16969190       0.00000000
H        2.07585264      -2.22672899       0.59952108       0.00000000
H       -2.26974925      -1.21195972      -1.77886997       0.00000000
H        1.97601123       2.47777418      -0.27856476       0.00000000
H        3.38113777       0.44546634       0.17595560       0.00000000
Si      -2.63288594       1.96274954      -1.53359411       0.00000000
