10
Lattice="16.290000149 0.0 0.0 0.0 16.290000149 0.0 0.0 0.0 29.1751946751" Properties=species:S:1:pos:R:3:initial_magmoms:R:1 pbc="T T T"
Si       1.44277273      -0.28657368      -0.44051626       0.00000000
Si      -1.98775469       0.06861348       1.05112391       0.00000000
Si      -1.22728861       1.94479796      -0.22564096       0.00000000
Si       0.64764154       2.65453697       1.05188247       0.00000000
Si       1.08556561      -0.07165971      -2.80735393       0.00000000
Si      -0.59689819       1.61108101      -2.55638891       0.00000000
Si       1.88123438      -2.43214589       0.42718320       0.00000000
Si      -0.96016519      -1.26773668       2.66713795       0.00000000
Si       2.65901672       1.29407761       0.97468490       0.00000000
H        1.62616555       2.39251232      -1.43069320       0.00000000
