10
Lattice="16.290000149 0.0 0.0 0.0 16.290000149 0.0 0.0 0.0 29.1751946751" Properties=species:S:1:pos:R:3:initial_magmoms:R:1 pbc="T T T"
Si      -1.32998647       1.40848228      -1.31057892       0.00000000
Si       1.33453953       1.37801998       1.34430545       0.00000000
Si      -1.38545392      -1.33103962       1.36767478       0.00000000
Si       1.34958334      -1.32631552      -1.40770314       0.00000000
Si      -2.71952349       0.06336810      -2.58636642       0.00000000
Si       2.64273731      -2.68022630       0.02301923       0.00000000
Si       2.67720695       0.01959687       2.70696209       0.00000000
Si       2.66655329       2.73496070      -0.03836538       0.00000000
Si      -0.05333916       2.73979884       2.66702125       0.00000000
Si      -2.75374878      -2.68012856       0.02984622       0.00000000
