10
Lattice="16.290000149 0.0 0.0 0.0 16.290000149 0.0 0.0 0.0 29.1751946751" Properties=species:S:1:pos:R:3:initial_magmoms:R:1 pbc="T T T"
Si       1.35954712      -1.34892604      -1.32930939       0.00000000
Si      -1.18420319      -1.52435305       1.31606386       0.00000000
Si       1.53217225       1.32157513       1.18675939       0.00000000
Si      -1.04178135       1.53660313      -1.47845299       0.00000000
H        2.71767701      -0.77234149      -1.05692978       0.00000000
Si       0.12103470       2.50018922       2.65669323       0.00000000
Si      -1.41028721      -3.37356129      -0.12306097       0.00000000
Si       2.29573343       2.82269539      -0.53098854       0.00000000
Si       0.89917543      -3.55664460      -0.72115246       0.00000000
Si       0.88826113      -0.92703133      -3.54070163       0.00000000
