10
Lattice="16.290000149 0.0 0.0 0.0 16.290000149 0.0 0.0 0.0 29.1751946751" Properties=species:S:1:pos:R:3:initial_magmoms:R:1 pbc="T T T"
Si       1.38751705       1.27448074       1.37787355       0.00000000
Si      -1.63350583       1.18376173      -1.21328636       0.00000000
Si       1.25055073      -1.34363179      -1.48622030       0.00000000
Si      -1.33527339      -1.40660242       1.35345683       0.00000000
Si      -2.96642532      -0.79493572      -1.69581490       0.00000000
Si      -2.68168687      -2.62134252      -0.12744396       0.00000000
Si      -0.03158631       2.65650806       2.66167548       0.00000000
Si       2.60781725      -2.72952424      -0.08729889       0.00000000
Si       2.59025663      -0.12266370       2.81919819       0.00000000
Si       3.26093223       2.07694244       0.18156249       0.00000000
