10
Lattice="16.290000149 0.0 0.0 0.0 16.290000149 0.0 0.0 0.0 29.1751946751" Properties=species:S:1:pos:R:3:initial_magmoms:R:1 pbc="T T T"
Si       1.34654770      -1.34456032       1.36464056       0.00000000
Si      -1.35415513       1.32857983       1.40122625       0.00000000
Si      -1.42241023      -1.46098495      -1.22308835       0.00000000
Si       1.46118043       1.43697936      -1.21349846       0.00000000
Si      -0.99637786       0.92587474      -3.41695796       0.00000000
Si       0.04479750       2.78042772      -2.46809893       0.00000000
Si      -2.82890514      -0.09700695      -2.47659183       0.00000000
Si       2.69058674      -2.64857483      -0.05791276       0.00000000
Si      -0.08478945      -2.61663014      -2.77868930       0.00000000
Si      -0.00961110      -2.71477739       2.70976291       0.00000000
