10
Lattice="16.290000149 0.0 0.0 0.0 16.290000149 0.0 0.0 0.0 29.1751946751" Properties=species:S:1:pos:R:3:initial_magmoms:R:1 pbc="T T T"
Si       1.30577383      -1.42700401      -1.30075942       0.00000000
Si       1.41213124       1.29562516       1.34454381       0.00000000
Si      -1.29987685      -1.48426336       1.27325130       0.00000000
Si      -1.27777132       1.49561749      -1.33897893       0.00000000
Si       2.56982897       0.05636340      -2.62645110       0.00000000
Si      -2.68364720      -0.11300373       2.62504310       0.00000000
Si      -2.63588492       0.14789691      -2.67867469       0.00000000
Si       0.03073923       2.65259846       2.66810569       0.00000000
Si      -0.07245792      -2.45482157      -2.93354919       0.00000000
Si      -2.72323190       2.68830614       0.01919173       0.00000000
