10
Lattice="16.290000149 0.0 0.0 0.0 16.290000149 0.0 0.0 0.0 29.1751946751" Properties=species:S:1:pos:R:3:initial_magmoms:R:1 pbc="T T T"
Si      -1.37181186       1.23971788      -1.44738141       0.00000000
Si       1.19912320      -1.40154274      -1.47588557       0.00000000
Si      -1.36603543      -1.42436503       1.30766140       0.00000000
Si       1.43783686       1.40965516       1.31367149       0.00000000
Si      -0.06538806       2.74388763       2.56374106       0.00000000
Si       2.55114434      -2.76025908      -0.16764067       0.00000000
Si      -2.77387752       2.56064141      -0.13271796       0.00000000
Si       0.04657311      -2.65641032       2.68922357       0.00000000
Si       2.73719244       2.65235411      -0.18403713       0.00000000
Si      -0.03982905       2.63795375      -2.78920696       0.00000000
