10
Lattice="16.290000149 0.0 0.0 0.0 16.290000149 0.0 0.0 0.0 29.1751946751" Properties=species:S:1:pos:R:3:initial_magmoms:R:1 pbc="T T T"
H       -0.88317865       0.84774790      -0.89340281       0.00000000
Si       1.02739402      -1.49281561      -1.46716219       0.00000000
Si      -1.39141036      -1.23326704       1.42459558       0.00000000
Si       1.89767099       1.29702610       0.63520234       0.00000000
Si       1.94080691       0.33757767      -2.63676657       0.00000000
Si       0.01690902       1.83936908      -2.96390803       0.00000000
H       -2.78661630       0.42911118      -2.13909610       0.00000000
Si       2.15151806       0.78758893       2.93042745       0.00000000
Si       0.01034415      -2.65681757       2.64616098       0.00000000
Si       2.53899200      -2.79625998      -0.17709343       0.00000000
