10
Lattice="16.290000149 0.0 0.0 0.0 16.290000149 0.0 0.0 0.0 29.1751946751" Properties=species:S:1:pos:R:3:initial_magmoms:R:1 pbc="T T T"
Si      -1.34493499      -1.34420475      -1.38946865       0.00000000
Si       1.30927618       1.34512559      -1.42631692       0.00000000
Si       1.43356888      -1.36601914       1.28884340       0.00000000
Si      -1.41579649       1.35726164       1.34818575       0.00000000
Si       0.10893123      -2.68273985       2.65450509       0.00000000
Si      -2.68673905      -2.68896263      -0.01811780       0.00000000
Si       2.60069852       2.78284842      -0.11197440       0.00000000
Si      -2.75426924       2.67888564      -0.05362401       0.00000000
Si       2.68367978      -0.04590033       2.76242413       0.00000000
Si      -0.10430487       2.82160233       2.62465886       0.00000000
