10
Lattice="16.290000149 0.0 0.0 0.0 16.290000149 0.0 0.0 0.0 29.1751946751" Properties=species:S:1:pos:R:3:initial_magmoms:R:1 pbc="T T T"
Si       1.41113755      -1.17861409      -1.46993383       0.00000000
Si      -1.31521389      -1.42783480       1.34675616       0.00000000
Si      -1.84255051       1.17435263      -0.93095129       0.00000000
Si       1.44637282       1.44130663       1.27516023       0.00000000
H        0.79614118       2.59822244      -1.46001427       0.00000000
Si      -0.48941676       2.56411118      -2.27411890       0.00000000
Si      -2.77060323       1.99000271       1.06556564       0.00000000
Si      -2.48586477       0.16359591       2.63393658       0.00000000
Si      -0.12103470      -2.50018922      -2.65669323       0.00000000
Si       2.80029990      -2.49538367      -0.04119537       0.00000000
