10
Lattice="16.290000149 0.0 0.0 0.0 16.290000149 0.0 0.0 0.0 29.1751946751" Properties=species:S:1:pos:R:3:initial_magmoms:R:1 pbc="T T T"
Si       1.34385985      -1.33270120      -1.38494649       0.00000000
Si      -1.36321237       1.33796287      -1.36373612       0.00000000
Si      -1.35532801      -1.38870622       1.32487477       0.00000000
Si       1.36963063       1.35006634       1.35419584       0.00000000
Si      -2.73176786      -0.04416219       2.65176262       0.00000000
Si      -2.69806385      -0.06735915      -2.70098117       0.00000000
Si       2.68947902      -2.71269227      -0.03072148       0.00000000
Si      -2.71909424       2.68910435       0.00256742       0.00000000
Si      -0.00705357       2.70817994      -2.70885848       0.00000000
Si       0.02492370       2.71101440       2.70780817       0.00000000
