10
Lattice="16.290000149 0.0 0.0 0.0 16.290000149 0.0 0.0 0.0 29.1751946751" Properties=species:S:1:pos:R:3:initial_magmoms:R:1 pbc="T T T"
Si       1.32175432       1.36183424      -1.38430464       0.00000000
Si      -1.36226755      -1.34227321      -1.37657321       0.00000000
Si      -1.42524469       1.36124780       1.30004667       0.00000000
Si       1.40286223      -1.34139355       1.35865964       0.00000000
Si       2.67058262       2.71844916      -0.02689953       0.00000000
Si       0.06061509      -2.71995110       2.67025969       0.00000000
Si       2.70813107      -2.68636112      -0.07203356       0.00000000
Si      -2.72675054      -2.69002637      -0.02532407       0.00000000
Si      -0.13382235       2.79897063       2.61438919       0.00000000
Si       2.62850555       0.09202547       2.78824418       0.00000000
