10
Lattice="16.290000149 0.0 0.0 0.0 16.290000149 0.0 0.0 0.0 29.1751946751" Properties=species:S:1:pos:R:3:initial_magmoms:R:1 pbc="T T T"
Si      -1.33498995       1.36176256      -1.36265664       0.00000000
Si       1.30407967       1.43167924       1.32846331       0.00000000
Si      -1.33858678      -1.37717290       1.35737593       0.00000000
Si       1.37630953      -1.34337115      -1.35918479       0.00000000
Si       2.65610081       0.07296291       2.63670822       0.00000000
Si      -2.59031300       0.04986369       2.72122876       0.00000000
Si       2.67283064       2.68871339      -0.10473895       0.00000000
Si      -2.65900043       2.71785620       0.02299005       0.00000000
Si      -2.67778280       0.00348606      -2.71906979       0.00000000
Si       0.01622484      -2.71042796      -2.69359985       0.00000000
