10
Lattice="16.290000149 0.0 0.0 0.0 16.290000149 0.0 0.0 0.0 29.1751946751" Properties=species:S:1:pos:R:3:initial_magmoms:R:1 pbc="T T T"
Si      -1.31536864       1.32319110       1.40043560       0.00000000
Si       0.98820028       1.78748868      -1.15234142       0.00000000
Si       1.38248344      -1.32397004       1.36622185       0.00000000
Si      -1.29780802      -1.28366944      -1.50606148       0.00000000
Si      -2.51810822       2.72033554      -0.04088904       0.00000000
Si       1.06976431       1.09420257      -3.38173474       0.00000000
Si      -2.63257805      -2.64849013      -0.09763771       0.00000000
Si      -0.64469305       3.52279724      -1.23720010       0.00000000
Si       0.11323179       2.72735653       2.64224275       0.00000000
Si       0.03274290      -2.71943308       2.67620268       0.00000000
