10
Lattice="16.290000149 0.0 0.0 0.0 16.290000149 0.0 0.0 0.0 29.1751946751" Properties=species:S:1:pos:R:3:initial_magmoms:R:1 pbc="T T T"
Si      -1.02739402       1.49281561       1.46716219       0.00000000
Si       0.91341289       1.83039329      -1.16960438       0.00000000
Si      -1.33397182      -1.45235125      -1.29917142       0.00000000
Si       1.51159798      -1.30344436       1.29006876       0.00000000
H       -1.91057267       2.34056351       0.57375938       0.00000000
H        2.77568571      -1.00089019      -1.31825200       0.00000000
Si       2.32515317      -2.28478655      -0.65425374       0.00000000
Si       0.45022302      -2.99452557      -1.93177717       0.00000000
Si       0.87027697       2.78984172       2.10236453       0.00000000
Si       2.48005478       2.59602329       0.42928381       0.00000000
