10
Lattice="16.290000149 0.0 0.0 0.0 16.290000149 0.0 0.0 0.0 29.1751946751" Properties=species:S:1:pos:R:3:initial_magmoms:R:1 pbc="T T T"
Si       1.81758935      -0.88813081       1.14862741       0.00000000
Si      -0.88334155       1.77745079       1.27912806       0.00000000
Si       1.12208779       1.43746219      -1.55305396       0.00000000
Si      -1.02506455      -2.14889537      -0.39150194       0.00000000
H       -1.93352528      -0.57140434      -1.86394484       0.00000000
Si       2.60838740       2.44977167      -0.08239075       0.00000000
Si      -0.05522310      -2.55362694      -2.54559409       0.00000000
Si      -1.95861188       0.61102162       2.98637293       0.00000000
Si       0.99254971       3.23608998       1.43498195       0.00000000
H        3.21590667      -0.63982234      -1.77391019       0.00000000
