10
Lattice="16.290000149 0.0 0.0 0.0 16.290000149 0.0 0.0 0.0 29.1751946751" Properties=species:S:1:pos:R:3:initial_magmoms:R:1 pbc="T T T"
Si       1.37318185       1.38557854       1.30643604       0.00000000
Si       1.37272573      -1.34025813      -1.36321097       0.00000000
Si      -1.32330187       1.36536265      -1.39156926       0.00000000
Si      -1.36664956      -1.35996740       1.37593136       0.00000000
Si      -2.67120164      -2.67506237      -0.06934944       0.00000000
Si       2.67740813       0.00519651       2.68061689       0.00000000
Si      -2.68607441       2.71961552      -0.04352939       0.00000000
Si       2.70441695      -2.70708851       0.00866503       0.00000000
Si       0.04432509       2.76226275       2.66719630       0.00000000
Si      -2.72837954       0.03157002       2.70646611       0.00000000
