10
Lattice="16.290000149 0.0 0.0 0.0 16.290000149 0.0 0.0 0.0 29.1751946751" Properties=species:S:1:pos:R:3:initial_magmoms:R:1 pbc="T T T"
Si      -0.08156403       0.69328612       2.22939333       0.00000000
Si       0.73111150      -2.19017749      -0.40013779       0.00000000
Si       1.93921049       1.02907189      -0.89897527       0.00000000
Si      -2.20371122       0.38125116      -0.80637321       0.00000000
H        2.45255726      -0.25141986       1.49458687       0.00000000
Si       2.63093276      -1.64061478       0.88698427       0.00000000
Si      -2.15344028       2.67545333      -0.13931155       0.00000000
Si       1.46437327      -1.84698954      -2.66176971       0.00000000
Si       1.01491588       2.06941646      -2.73619563       0.00000000
Si       0.24314454       0.02327841      -3.61477744       0.00000000
