10
Lattice="16.290000149 0.0 0.0 0.0 16.290000149 0.0 0.0 0.0 29.1751946751" Properties=species:S:1:pos:R:3:initial_magmoms:R:1 pbc="T T T"
Si       1.32473539       1.33665218       1.33653026       0.00000000
Si      -1.41638293       1.34344837      -1.25460047       0.00000000
Si       1.23132853      -1.20217530      -1.59525296       0.00000000
Si      -1.46118043      -1.43697936       1.21349846       0.00000000
Si      -2.45755829      -0.51110462      -2.20345950       0.00000000
Si      -0.71296444      -2.05557582      -2.65126868       0.00000000
Si       2.62342462       2.62600732      -0.13651074       0.00000000
Si       2.64165289      -0.09877214       2.61142791       0.00000000
Si       2.53259003      -2.73188776      -0.27813588       0.00000000
Si      -0.11850975       2.66766085       2.61910099       0.00000000
