10
Lattice="16.290000149 0.0 0.0 0.0 16.290000149 0.0 0.0 0.0 29.1751946751" Properties=species:S:1:pos:R:3:initial_magmoms:R:1 pbc="T T T"
Si       1.36277254      -1.35425287      -1.34803987       0.00000000
Si       1.37246509       1.36990756       1.32688785       0.00000000
Si      -1.35345466       1.35176050      -1.36621602       0.00000000
Si      -1.37573938      -1.34267068       1.35725923       0.00000000
Si       0.00299736       2.72298755       2.65879384       0.00000000
Si       2.68607441      -2.71961552       0.04352939       0.00000000
Si       0.00390960      -2.69895980      -2.71052146       0.00000000
Si      -2.72872163       0.03914487       2.69103243       0.00000000
Si       2.72044631       0.02335986      -2.70206065       0.00000000
Si      -2.72456768      -2.69928560      -0.00014588       0.00000000
