10
Lattice="16.290000149 0.0 0.0 0.0 16.290000149 0.0 0.0 0.0 29.1751946751" Properties=species:S:1:pos:R:3:initial_magmoms:R:1 pbc="T T T"
Si      -1.32473539      -1.33665218      -1.33653026       0.00000000
Si       1.31691750      -1.43542431       1.27489766       0.00000000
Si      -1.44324514       1.33100867       1.28257073       0.00000000
Si       1.29868923       1.28935514      -1.47304099       0.00000000
Si       2.63028116      -0.05207099       2.63945069       0.00000000
Si      -0.07495029       2.68009761       2.62039929       0.00000000
Si      -2.74111832       0.00679619      -2.59113073       0.00000000
Si       2.66008698       2.68482171      -0.15497863       0.00000000
Si      -0.15110604       2.67418434      -2.69891265       0.00000000
Si      -0.08219934      -2.76946130       2.60832075       0.00000000
