10
Lattice="16.290000149 0.0 0.0 0.0 16.290000149 0.0 0.0 0.0 29.1751946751" Properties=species:S:1:pos:R:3:initial_magmoms:R:1 pbc="T T T"
Si       1.35786925      -1.39502511      -1.28738464       0.00000000
Si       1.39128004       1.34464177       1.32761723       0.00000000
Si      -1.32295978      -1.38298192       1.36370695       0.00000000
Si      -1.29315397       1.35391078      -1.43072237       0.00000000
Si      -2.64273731       2.68022630      -0.02301923       0.00000000
Si       2.70389567      -0.06486678      -2.63407662       0.00000000
Si       0.03446964       2.69982317       2.68394286       0.00000000
Si      -2.63632345      -2.76633525      -0.00084608       0.00000000
Si      -2.65455172      -0.04155579      -2.74878473       0.00000000
Si      -2.70309746      -0.03463254       2.70421962       0.00000000
