10
Lattice="16.290000149 0.0 0.0 0.0 16.290000149 0.0 0.0 0.0 29.1751946751" Properties=species:S:1:pos:R:3:initial_magmoms:R:1 pbc="T T T"
Si      -1.46629386       1.20410794       1.34299256       0.00000000
Si       1.18420319       1.52435305      -1.31606386       0.00000000
Si      -0.22608402      -1.84920824      -1.43912483       0.00000000
Si       1.43567192      -1.18516267       1.44592265       0.00000000
H       -2.95195817      -1.25274988      -1.42409960       0.00000000
Si       2.08337862      -2.03229155      -2.03721632       0.00000000
Si      -2.62045667      -0.43083792       2.52525898       0.00000000
Si       2.54375031       0.17542701      -2.64537325       0.00000000
Si       3.15527692      -1.94313638       0.06517738       0.00000000
Si      -0.00997600       2.59670747       2.68738553       0.00000000
