10
Lattice="16.290000149 0.0 0.0 0.0 16.290000149 0.0 0.0 0.0 29.1751946751" Properties=species:S:1:pos:R:3:initial_magmoms:R:1 pbc="T T T"
Si      -1.29845554      -1.34535283       1.36370695       0.00000000
Si       1.28213786       1.30824747       1.43830792       0.00000000
Si      -1.46386421       1.28758197      -1.29362813       0.00000000
Si       1.37652864      -1.39910983      -1.30964531       0.00000000
Si       2.66462456      -0.13112880       2.58591420       0.00000000
Si       2.64747119       2.64711444       0.05665823       0.00000000
Si      -2.59458570       0.06355153       2.70153550       0.00000000
Si      -0.08240703       2.62043142      -2.67790359       0.00000000
Si      -2.57749749      -2.80439927       0.05951740       0.00000000
Si       2.71833269      -0.05435195      -2.68099616       0.00000000
