10
Lattice="16.290000149 0.0 0.0 0.0 16.290000149 0.0 0.0 0.0 29.1751946751" Properties=species:S:1:pos:R:3:initial_magmoms:R:1 pbc="T T T"
Si      -1.22082148       1.32467023      -1.51617652       0.00000000
Si       1.33397182       1.45235125       1.29917142       0.00000000
Si      -1.61660332      -1.02920221       1.39296967       0.00000000
Si       1.78419485      -1.54217431      -0.63260575       0.00000000
H       -0.85240684      -1.73337005      -1.75555899       0.00000000
H       -0.20470014      -2.16104771      -1.71795216       0.00000000
H        1.34837218       0.62009515      -2.85330486       0.00000000
Si      -0.04618215      -2.30886317       2.51411405       0.00000000
Si       0.03562623       1.08261712      -3.45632696       0.00000000
Si       1.02372877      -3.41835879       0.64415912       0.00000000
