10
Lattice="16.290000149 0.0 0.0 0.0 16.290000149 0.0 0.0 0.0 29.1751946751" Properties=species:S:1:pos:R:3:initial_magmoms:R:1 pbc="T T T"
Si      -1.33113736      -1.29772657      -1.43553628       0.00000000
Si      -1.11089656       1.10874628       1.75876826       0.00000000
Si       1.37523439       1.36726858      -1.35393326       0.00000000
Si       1.33530760      -1.40924791       1.38062856       0.00000000
Si       2.64860741      -2.50579298      -0.18298682       0.00000000
Si       0.76147606       1.93626200       3.00997566       0.00000000
Si       2.44393985       0.25352127       2.75901063       0.00000000
Si      -2.75172312      -0.43577379       2.49089060       0.00000000
Si       0.01311345      -2.64038096      -2.80802496       0.00000000
Si       0.04510701       2.68244174      -2.79626736       0.00000000
