10
Lattice="16.290000149 0.0 0.0 0.0 16.290000149 0.0 0.0 0.0 29.1751946751" Properties=species:S:1:pos:R:3:initial_magmoms:R:1 pbc="T T T"
Si      -1.41579649      -1.32685309       1.23749506       0.00000000
Si       1.35883036      -1.37031481      -1.26459881       0.00000000
Si       1.23139369       1.13810086       1.62607948       0.00000000
Si      -1.39553173       1.44713845      -1.19743751       0.00000000
Si      -0.37093959       1.06745113       3.41629860       0.00000000
Si       2.69612534       0.07467336      -2.52333341       0.00000000
Si      -2.49802265       0.09373266       2.73543708       0.00000000
Si      -0.06056622      -2.68050323      -2.57937896       0.00000000
Si       2.52687224       2.72596862       0.34514255       0.00000000
Si      -0.12160485      -2.62166375       2.66366610       0.00000000
