10
Lattice="10.86 0.0 0.0 0.0 10.86 0.0 0.0 0.0 10.86" Properties=species:S:1:pos:R:3:initial_magmoms:R:1 pbc="T T T"
Si       1.34366436      -1.14430734      -1.29378438       0.00000000
Si      -1.37133564      -1.14430734       1.42121562       0.00000000
Si       1.34366436       1.57069266       1.42121562       0.00000000
Si       0.13318704      -2.50170960      -2.52353820       0.00000000
Si       2.70116436      -2.50180734       0.06371562       0.00000000
Si      -0.01383564      -2.50180734       2.77871562       0.00000000
Si       2.70116436       0.21319266      -2.65128438       0.00000000
Si       0.28666056       2.74660260      -2.62602402       0.00000000
Si      -2.63410386      -2.80755978       0.02590110       0.00000000
Si       2.70116436       0.21319266       2.77871562       0.00000000
