10
Lattice="16.28999089631971 0.0 0.0 0.0 16.28999089631971 0.0 0.0 0.0 34.54679606040008" Properties=species:S:1:pos:R:3:initial_magmoms:R:1 pbc="T T T"
Si       0.86767056       2.01304719       0.81575395       0.00000000
Si       1.28993994      -1.49125176       1.28037407       0.00000000
Si      -2.26326907      -0.07687251       0.96078148       0.00000000
Si       0.69555042      -0.75709404      -2.25248691       0.00000000
Si       0.70032339      -3.52735515       0.17698334       0.00000000
Si      -1.15890318      -2.05205130      -2.86313642       0.00000000
Si      -3.65986520       0.50081976      -0.81644489       0.00000000
Si       1.69473015       1.56260100       3.02122264       0.00000000
Si       2.35133118       2.98436777      -0.68167776       0.00000000
Si       0.52372350       1.00919808      -3.82661255       0.00000000
