10
Lattice="16.28999089631971 0.0 0.0 0.0 16.28999089631971 0.0 0.0 0.0 34.54679606040008" Properties=species:S:1:pos:R:3:initial_magmoms:R:1 pbc="T T T"
Si       1.36239786       1.35481975      -1.35033828       0.00000000
Si       1.35576783      -1.35706282       1.36066087       0.00000000
Si      -1.36241415       1.35840355       1.36055723       0.00000000
Si      -1.37950236      -1.36668610      -1.37353992       0.00000000
Si      -0.04072500       2.60786284      -2.70397924       0.00000000
Si       2.57725719      -0.09915234      -2.76816722       0.00000000
Si      -2.71831719      -2.70758763       0.00549294       0.00000000
Si       2.71502172      -2.71379412       0.00252192       0.00000000
Si       2.71507059       2.71518136       0.00400743       0.00000000
Si       2.71261080       0.00130809       2.71817798       0.00000000
