10
Lattice="16.28999089631971 0.0 0.0 0.0 16.28999089631971 0.0 0.0 0.0 34.54679606040008" Properties=species:S:1:pos:R:3:initial_magmoms:R:1 pbc="T T T"
Si       1.35553977       1.35695700       1.35768984       0.00000000
Si      -1.35765747       1.35736425      -1.35737892       0.00000000
Si       1.35751086      -1.35763304      -1.35727528       0.00000000
Si      -1.35816246      -1.35945914       1.35692981       0.00000000
Si       2.71355562       0.00022806      -2.71327233       0.00000000
Si      -0.00055386       2.71267596      -2.71437783       0.00000000
Si       2.71427238       2.71538010       0.00013819       0.00000000
Si      -2.71477737       2.71533123       0.00055275       0.00000000
Si      -2.71538010      -2.71483137       0.00027637       0.00000000
Si       2.71498914      -2.71528005       0.00044911       0.00000000
