10
Lattice="16.28999089631971 0.0 0.0 0.0 16.28999089631971 0.0 0.0 0.0 34.54679606040008" Properties=species:S:1:pos:R:3:initial_magmoms:R:1 pbc="T T T"
Si       1.36176255       1.34997511      -1.38404906       0.00000000
Si      -1.35684297      -1.35894505      -1.38273629       0.00000000
Si      -1.27382913       1.51688245       1.40785182       0.00000000
Si       1.22777730      -1.58094517       1.40681542       0.00000000
Si       2.70037701      -2.72225515      -0.03813968       0.00000000
Si       2.74103685       2.68603204      -0.02345729       0.00000000
Si      -2.69645112       0.15255096       2.72819656       0.00000000
Si      -2.72859129      -2.70989104       0.00431835       0.00000000
Si      -2.72679939       2.72628463      -0.00656389       0.00000000
Si       0.00024435       2.71041817      -2.74488267       0.00000000
