10
Lattice="16.28999089631971 0.0 0.0 0.0 16.28999089631971 0.0 0.0 0.0 34.54679606040008" Properties=species:S:1:pos:R:3:initial_magmoms:R:1 pbc="T T T"
Si       0.92735712       1.86906084      -1.25035289       0.00000000
Si      -0.67968396       1.84061850       1.48368208       0.00000000
Si       2.02241979      -1.22476202      -0.75004591       0.00000000
Si      -2.26131264      -1.12965123       0.28248931       0.00000000
Si       1.23176835      -1.44801388       1.87768851       0.00000000
Si       3.12122916       0.93523659      -0.89887359       0.00000000
Si      -2.36553606       2.50283958      -0.02055536       0.00000000
Si      -3.65334201       0.60254592      -0.55876019       0.00000000
Si      -1.93691358       0.80639898       3.19022567       0.00000000
Si      -0.57443427      -2.58228658       2.89035931       0.00000000
