10
Lattice="16.28999089631971 0.0 0.0 0.0 16.28999089631971 0.0 0.0 0.0 34.54679606040008" Properties=species:S:1:pos:R:3:initial_magmoms:R:1 pbc="T T T"
Si       0.72251037       1.97757554      -0.97031640       0.00000000
Si       0.88392798       0.26518703       2.13254037       0.00000000
Si       1.57279950      -1.48071720      -0.98748617       0.00000000
Si      -2.41002405      -0.18774732      -0.00462927       0.00000000
Si      -2.23819713      -1.95403944       1.56949637       0.00000000
Si       0.82821618      -1.29196497      -3.20919187       0.00000000
Si       3.07835388       0.86146293       1.59889571       0.00000000
Si      -0.03919374      -3.19856286       1.60501050       0.00000000
Si      -1.22205951      -0.06695304      -3.41125619       0.00000000
Si      -0.53426313       2.09672060      -2.90932551       0.00000000
