10
Lattice="16.28999089631971 0.0 0.0 0.0 16.28999089631971 0.0 0.0 0.0 34.54679606040008" Properties=species:S:1:pos:R:3:initial_magmoms:R:1 pbc="T T T"
Si      -0.96700698      -1.86978249      -0.97308015       0.00000000
Si       1.50157962      -0.61844985       1.66650383       0.00000000
Si       0.82093455       1.07228925      -1.98333267       0.00000000
Si      -2.06565345       0.89241507       0.84560240       0.00000000
Si      -2.18030247      -0.60727491      -2.62020321       0.00000000
Si      -2.10782826       2.75913504      -0.63925427       0.00000000
Si       0.04973337       3.25063692      -1.60639237       0.00000000
Si      -2.45066760      -2.84110306       0.52435156       0.00000000
Si      -0.35491023       0.17111016      -3.82153417       0.00000000
Si       3.68870760      -0.79149852       0.79512950       0.00000000
