10
Lattice="16.28999089631971 0.0 0.0 0.0 16.28999089631971 0.0 0.0 0.0 34.54679606040008" Properties=species:S:1:pos:R:3:initial_magmoms:R:1 pbc="T T T"
Si       0.55946376      -1.60935330       1.64826311       0.00000000
Si      -0.82705959       0.45044619      -2.20546869       0.00000000
Si       2.31617736       0.68377438       0.03527230       0.00000000
Si      -1.24458858       1.60538764       1.35053865       0.00000000
Si      -0.78304401      -3.32610753       0.65238206       0.00000000
Si      -0.40479021      -3.05385276      -1.74084857       0.00000000
Si      -3.18668238       1.83300782       0.01012222       0.00000000
Si       2.93094567      -1.68954897       1.68166988       0.00000000
Si      -1.69473015      -1.56260100      -3.02122264       0.00000000
Si       3.51515394      -1.34767074      -0.53050090       0.00000000
