10
Lattice="16.28999089631971 0.0 0.0 0.0 16.28999089631971 0.0 0.0 0.0 34.54679606040008" Properties=species:S:1:pos:R:3:initial_magmoms:R:1 pbc="T T T"
Si       1.04941809      -0.59873895       2.03104877       0.00000000
Si      -2.15277237       0.97849143       0.10481504       0.00000000
Si       1.01713131       1.84492395      -1.18478303       0.00000000
Si      -0.20406483      -1.71656527      -1.85512944       0.00000000
Si       0.60494544       0.27275976      -2.95371817       0.00000000
Si      -0.74942145      -1.64373430       3.13790248       0.00000000
Si      -0.48122289       3.63674250      -0.77267407       0.00000000
Si      -3.76483077      -0.79495200      -0.53986308       0.00000000
Si      -2.52024219      -2.40033964      -1.89040174       0.00000000
Si       2.10637845       1.22139162       3.13185679       0.00000000
