10
Lattice="16.28999089631971 0.0 0.0 0.0 16.28999089631971 0.0 0.0 0.0 34.54679606040008" Properties=species:S:1:pos:R:3:initial_magmoms:R:1 pbc="T T T"
Si       1.34612415       1.35267273       1.38547585       0.00000000
Si      -1.36884870      -1.36251189       1.38582132       0.00000000
Si      -1.44391302       1.17348273      -1.52346619       0.00000000
Si       1.34763912      -1.44182790      -1.41817786       0.00000000
Si      -2.18745378      -0.90416016      -2.75659891       0.00000000
Si      -0.37597320      -2.53956213      -2.63568502       0.00000000
Si      -2.72212416       2.67643071       0.02519499       0.00000000
Si       2.69702127       2.70775638      -0.01665157       0.00000000
Si       2.69257410      -2.72859129       0.02526754       0.00000000
Si       2.70306486      -0.00552231       2.74700039       0.00000000
