10
Lattice="16.28999089631971 0.0 0.0 0.0 16.28999089631971 0.0 0.0 0.0 34.54679606040008" Properties=species:S:1:pos:R:3:initial_magmoms:R:1 pbc="T T T"
Si      -1.35694071      -1.35782037       1.35706800       0.00000000
Si       1.35778779       1.35757602       1.35717164       0.00000000
Si      -1.35694071       1.35819504      -1.36152454       0.00000000
Si       1.35961227      -1.35715248      -1.36142090       0.00000000
Si      -2.71469592       2.71432125       0.00020728       0.00000000
Si      -2.71454931      -0.00061902       2.71475785       0.00000000
Si      -0.00030951      -2.71490769       2.71455056       0.00000000
Si       2.71498914       2.71464705       0.00103640       0.00000000
Si       0.00035838       2.71511946       2.71468875       0.00000000
Si       2.71559187      -0.00024435       2.71451602       0.00000000
