10
Lattice="16.28999089631971 0.0 0.0 0.0 16.28999089631971 0.0 0.0 0.0 34.54679606040008" Properties=species:S:1:pos:R:3:initial_magmoms:R:1 pbc="T T T"
Si      -1.35553977      -1.35695700      -1.35768984       0.00000000
Si      -1.35503478       1.35835794       1.35727528       0.00000000
Si       1.35873261       1.35842310      -1.35755166       0.00000000
Si       1.36151820      -1.36044306       1.36083360       0.00000000
Si      -2.71319724       0.00040725      -2.71506877       0.00000000
Si      -2.71230129       2.71612944      -0.00024183       0.00000000
Si       0.00197109      -2.71459003      -2.71496513       0.00000000
Si      -2.71370223      -2.71641614      -0.00076003       0.00000000
Si       0.00210141       2.71551042      -2.71503422       0.00000000
Si       2.71684620       2.71480995       0.00048366       0.00000000
