10
Lattice="16.28999089631971 0.0 0.0 0.0 16.28999089631971 0.0 0.0 0.0 34.54679606040008" Properties=species:S:1:pos:R:3:initial_magmoms:R:1 pbc="T T T"
Si       1.35679410       1.35658233      -1.35710255       0.00000000
Si       1.35726651      -1.35777150       1.35751711       0.00000000
Si      -1.35801585      -1.35775521      -1.35689527       0.00000000
Si      -1.36003581       1.35677781       1.35955537       0.00000000
Si       2.71230129      -2.71612944       0.00024183       0.00000000
Si      -0.00052128       2.71414206      -2.71475785       0.00000000
Si      -2.71431636       2.71480995      -0.00089822       0.00000000
Si       2.71440270      -0.00061902      -2.71479239       0.00000000
Si       2.70158247       0.00267156       2.72778199       0.00000000
Si       2.71446786       2.71547784      -0.00055275       0.00000000
