10
Lattice="16.28999089631971 0.0 0.0 0.0 16.28999089631971 0.0 0.0 0.0 34.54679606040008" Properties=species:S:1:pos:R:3:initial_magmoms:R:1 pbc="T T T"
Si       1.35503478      -1.35835794      -1.35727528       0.00000000
Si      -1.35726651       1.35777150      -1.35751711       0.00000000
Si       1.34431596       1.36044306       1.37026488       0.00000000
Si      -1.37200896      -1.34249148       1.38104349       0.00000000
Si       0.08096130      -2.55189366       2.79545921       0.00000000
Si       2.70953199       2.71489140       0.00321285       0.00000000
Si      -2.71352304      -2.71497285       0.00507838       0.00000000
Si       2.71376739       0.00006516      -2.71482694       0.00000000
Si      -0.00047241       2.71435383      -2.71461966       0.00000000
Si      -2.71528236       0.00001629      -2.71441238       0.00000000
