10
Lattice="16.28999089631971 0.0 0.0 0.0 16.28999089631971 0.0 0.0 0.0 34.54679606040008" Properties=species:S:1:pos:R:3:initial_magmoms:R:1 pbc="T T T"
Si      -1.34431596      -1.36044306      -1.37026488       0.00000000
Si       1.36521603       1.35444834      -1.36705203       0.00000000
Si       1.50386022      -1.28155059       1.30704421       0.00000000
Si      -1.49354865       1.31918049       1.40222069       0.00000000
Si       0.17816373       2.54624103       2.57480870       0.00000000
Si       0.20898441      -2.53640187       2.78720252       0.00000000
Si       2.77698888       0.27603405       2.61989229       0.00000000
Si      -2.71632492      -2.70293454       0.01077861       0.00000000
Si      -2.70158247      -0.00267156      -2.72778199       0.00000000
Si      -2.71552671       2.72277576      -0.01022586       0.00000000
