10
Lattice="16.28999089631971 0.0 0.0 0.0 16.28999089631971 0.0 0.0 0.0 34.54679606040008" Properties=species:S:1:pos:R:3:initial_magmoms:R:1 pbc="T T T"
Si       1.43125569       1.22394915       1.40149521       0.00000000
Si      -1.92909438      -0.79402347       1.13883577       0.00000000
Si      -0.51741927       1.73102427      -1.55809592       0.00000000
Si       1.23660648      -1.89931626      -0.78352177       0.00000000
Si      -1.06241751      -2.31832764       2.69136965       0.00000000
Si       2.53588059       2.73183300      -0.09300003       0.00000000
Si       0.19114686       0.69493140      -3.67733576       0.00000000
Si      -0.36913140      -3.01570254      -2.21635094       0.00000000
Si       0.07560189       2.21143266       3.10344406       0.00000000
Si       0.52541766       3.76579188      -0.78794376       0.00000000
