10
Lattice="16.28999089631971 0.0 0.0 0.0 16.28999089631971 0.0 0.0 0.0 34.54679606040008" Properties=species:S:1:pos:R:3:initial_magmoms:R:1 pbc="T T T"
Si       1.17981954       1.58032548      -1.39206393       0.00000000
Si       1.76528214      -1.69914474      -0.04667275       0.00000000
Si      -0.70856613       1.03609287       2.11923984       0.00000000
Si      -1.61264484      -1.24137945      -1.39603681       0.00000000
Si       2.14821117       0.09057240      -3.04968922       0.00000000
Si      -3.18599820       1.85282460      -0.60446563       0.00000000
Si       3.42684585       1.47502692      -0.32339274       0.00000000
Si      -0.19114686      -0.69493140       3.67733576       0.00000000
Si      -3.08462553       1.28746386       1.72837717       0.00000000
Si      -2.24613036      -3.04841286      -0.04325261       0.00000000
