10
Lattice="16.28999089631971 0.0 0.0 0.0 16.28999089631971 0.0 0.0 0.0 34.54679606040008" Properties=species:S:1:pos:R:3:initial_magmoms:R:1 pbc="T T T"
Si       1.22197806      -1.40359527       1.41244655       0.00000000
Si      -1.34609157      -1.36866951      -1.35800077       0.00000000
Si       1.37606517       1.34439741      -1.35924445       0.00000000
Si      -1.37728692       1.33102332       1.42864900       0.00000000
Si      -2.69113406      -2.72725551       0.01319688       0.00000000
Si      -2.70037212      -0.01063737      -2.71845435       0.00000000
Si       0.01254330       2.70304857      -2.71748704       0.00000000
Si       2.73945672       2.68859934       0.00514748       0.00000000
Si      -2.71366802       2.71456560       0.03205944       0.00000000
Si       2.71552671      -2.72277576       0.01022586       0.00000000
