10
Lattice="16.28999089631971 0.0 0.0 0.0 16.28999089631971 0.0 0.0 0.0 34.54679606040008" Properties=species:S:1:pos:R:3:initial_magmoms:R:1 pbc="T T T"
Si      -0.82849311       2.08059138       0.68174685       0.00000000
Si      -0.10137267       0.56536074      -2.33284280       0.00000000
Si       2.37605940      -0.25137099       0.39086267       0.00000000
Si      -1.81449423      -1.63411506      -0.02369912       0.00000000
Si      -2.12382504       1.67948271       2.59526041       0.00000000
Si       3.08462553      -1.28746386      -1.72837717       0.00000000
Si      -2.24464797       0.06056622      -3.02557554       0.00000000
Si      -0.84872529      -3.72990501      -0.23498744       0.00000000
Si       2.89347867      -1.98239526       1.94895859       0.00000000
Si       3.41889633       1.78339662       1.16101482       0.00000000
