10
Lattice="16.28999089631971 0.0 0.0 0.0 16.28999089631971 0.0 0.0 0.0 34.54679606040008" Properties=species:S:1:pos:R:3:initial_magmoms:R:1 pbc="T T T"
Si      -1.26384336       1.94074173      -0.03620506       0.00000000
Si      -0.40444812      -1.74298113       1.48029649       0.00000000
Si       0.49197429      -0.26694423      -2.27193677       0.00000000
Si       2.10313674       0.80412327       0.75705891       0.00000000
Si       0.26999046       3.46095711      -0.99809204       0.00000000
Si       0.36554760       2.06555571      -2.95340725       0.00000000
Si       3.54704976      -0.69010956      -0.36429617       0.00000000
Si      -2.47502115      -2.69223201       0.72289211       0.00000000
Si       2.68845273      -1.14207561      -2.47002821       0.00000000
Si       1.09390608      -3.53479968       1.06818753       0.00000000
