10
Lattice="16.28999089631971 0.0 0.0 0.0 16.28999089631971 0.0 0.0 0.0 34.54679606040008" Properties=species:S:1:pos:R:3:initial_magmoms:R:1 pbc="T T T"
Si       1.35602847      -1.35376416       1.35468427       0.00000000
Si      -1.35826020      -1.35624024      -1.35730983       0.00000000
Si       1.35656604       1.35843260      -1.35699891       0.00000000
Si      -1.35997065       1.36130643       1.36238821       0.00000000
Si       2.69724933      -0.00200367       2.70698481       0.00000000
Si       2.71368594      -2.71379997       0.00055275       0.00000000
Si      -0.00063531      -2.71383255      -2.71465420       0.00000000
Si       2.71357191       0.00122175      -2.71499967       0.00000000
Si      -2.71555929       0.00122175      -2.71451602       0.00000000
Si      -0.00091224       2.71607961      -2.71472330       0.00000000
