10
Lattice="16.28999089631971 0.0 0.0 0.0 16.28999089631971 0.0 0.0 0.0 34.54679606040008" Properties=species:S:1:pos:R:3:initial_magmoms:R:1 pbc="T T T"
Si      -1.67938497      -0.82639170      -1.59582104       0.00000000
Si       0.97526601       1.80076176      -1.54579725       0.00000000
Si      -1.51720173       0.09013257       2.12065626       0.00000000
Si       2.06250948      -1.71308898       0.08550337       0.00000000
Si      -0.23905575      -2.06768970      -2.97503355       0.00000000
Si      -3.00561903      -2.10763278       0.00082912       0.00000000
Si       2.50761744       2.22037328       1.92688317       0.00000000
Si       0.84067803      -3.35906316       1.72284968       0.00000000
Si       1.25193537      -3.33340641      -1.56244882       0.00000000
Si       2.97988083       2.47896889      -0.39566468       0.00000000
