10
Lattice="16.28999089631971 0.0 0.0 0.0 16.28999089631971 0.0 0.0 0.0 34.54679606040008" Properties=species:S:1:pos:R:3:initial_magmoms:R:1 pbc="T T T"
Si       0.74458332      -0.18875223       2.22170570       0.00000000
Si      -0.58028238      -1.93476330      -1.21874255       0.00000000
Si       1.80620262       1.13427270      -1.01267080       0.00000000
Si      -2.05027569       1.22501193      -0.20206432       0.00000000
Si      -1.68687837       1.45263536      -2.60787000       0.00000000
Si      -0.82821618       1.29196497       3.20919187       0.00000000
Si      -1.36247931       3.38868557       0.29986636       0.00000000
Si      -2.10145887      -3.01304727       0.26632140       0.00000000
Si      -1.42796511      -0.77271615      -3.44663213       0.00000000
Si       0.56949840      -2.39419017       2.95081623       0.00000000
