10
Lattice="16.28999089631971 0.0 0.0 0.0 16.28999089631971 0.0 0.0 0.0 34.54679606040008" Properties=species:S:1:pos:R:3:initial_magmoms:R:1 pbc="T T T"
Si      -1.15608501      -1.61220501      -1.21742977       0.00000000
Si       0.17508492       2.20543794      -0.72911054       0.00000000
Si      -1.43690832       0.48759228       1.86338613       0.00000000
Si       2.15873451      -0.98725545       0.50072154       0.00000000
Si      -2.06410590      -2.84778522       0.59886904       0.00000000
Si       3.18122523       0.93659355       1.44364232       0.00000000
Si       2.28921741       2.81316897       0.28704949       0.00000000
Si       1.48721184      -2.80468188       1.88273234       0.00000000
Si      -1.88175564      -1.65534093       2.71879982       0.00000000
Si      -0.05048271       1.77474663       3.24608787       0.00000000
