10
Lattice="16.28999089631971 0.0 0.0 0.0 16.28999089631971 0.0 0.0 0.0 34.54679606040008" Properties=species:S:1:pos:R:3:initial_magmoms:R:1 pbc="T T T"
Si       0.61168950       0.52457058      -2.16525620       0.00000000
Si       0.73889811      -2.24733582       0.32957662       0.00000000
Si      -2.37934998      -0.25221807      -0.05061108       0.00000000
Si       1.54059417       1.45396395       1.15973659       0.00000000
Si       2.86073577      -0.20725767      -1.82721561       0.00000000
Si      -2.75760378      -0.52447284       2.34261955       0.00000000
Si       0.95638590       1.11208572       3.37190737       0.00000000
Si      -0.77473611      -0.76258377      -3.54795794       0.00000000
Si      -1.41509601       1.19228139       3.33850060       0.00000000
Si      -1.97455977       2.80163469       1.69023749       0.00000000
