10
Lattice="16.28999089631971 0.0 0.0 0.0 16.28999089631971 0.0 0.0 0.0 34.54679606040008" Properties=species:S:1:pos:R:3:initial_magmoms:R:1 pbc="T T T"
Si      -1.79883954      -1.04499535       1.10685371       0.00000000
Si      -1.04941809       0.59873895      -2.03104877       0.00000000
Si       1.05696036       1.82013057       1.10080802       0.00000000
Si      -0.31100868      -2.31862167       2.48455998       0.00000000
Si       2.40992631       0.41928831       2.50989661       0.00000000
Si       3.24096066      -0.60299064      -1.81976045       0.00000000
Si      -3.01369887       0.40897674       2.52468265       0.00000000
Si      -0.31690566       3.12031692       2.51432897       0.00000000
Si       2.91345021      -2.77078958      -0.20265857       0.00000000
Si      -0.03228678       2.44366290      -3.21583180       0.00000000
