10
Lattice="16.28999089631971 0.0 0.0 0.0 16.28999089631971 0.0 0.0 0.0 34.54679606040008" Properties=species:S:1:pos:R:3:initial_magmoms:R:1 pbc="T T T"
Si      -1.73162700      -0.87511804       1.35337149       0.00000000
Si       0.70081209       1.72630441       1.48907138       0.00000000
Si       2.01510558      -1.12534873      -0.61766251       0.00000000
Si      -1.27221642       1.15241911      -1.67755881       0.00000000
Si      -1.45197657       2.70062560       1.72834263       0.00000000
Si      -2.56134186       2.55698038      -0.30266465       0.00000000
Si       2.36105631      -0.22460947      -2.77628572       0.00000000
Si      -0.83961918      -2.75169346       2.50996432       0.00000000
Si      -2.34020511       0.85933106       2.92359334       0.00000000
Si      -2.78414019      -0.15982414      -2.89716503       0.00000000
