10
Lattice="16.28999089631971 0.0 0.0 0.0 16.28999089631971 0.0 0.0 0.0 34.54679606040008" Properties=species:S:1:pos:R:3:initial_magmoms:R:1 pbc="T T T"
Si       0.52851276      -1.68821415       1.55567764       0.00000000
Si       2.15291898       0.41155056      -0.93172761       0.00000000
Si      -1.23660648       1.89931626       0.78352177       0.00000000
Si      -1.60573788      -1.11638628      -1.43282917       0.00000000
Si       0.71982252       0.89510292      -2.94048674       0.00000000
Si      -1.60619400      -2.26975086       2.21272352       0.00000000
Si      -2.86296750      -2.15060580       0.27371442       0.00000000
Si       1.81763820      -3.09277542       0.18078348       0.00000000
Si       2.89774665      -1.78559577      -1.51435965       0.00000000
Si       0.19464921       3.12326541       2.18501698       0.00000000
