10
Lattice="16.28999089631971 0.0 0.0 0.0 16.28999089631971 0.0 0.0 0.0 34.54679606040008" Properties=species:S:1:pos:R:3:initial_magmoms:R:1 pbc="T T T"
Si      -1.14505668      -0.12320127      -1.98015436       0.00000000
Si      -0.73790442       2.23879986       0.47640058       0.00000000
Si      -0.55750896      -1.89913707       1.37430686       0.00000000
Si       2.28998304      -0.00066789      -0.78704555       0.00000000
Si       0.97184511      -1.33524243       3.10755514       0.00000000
Si      -0.41629095       1.77256377      -3.14852766       0.00000000
Si      -3.42528201      -0.03534930      -1.40415531       0.00000000
Si      -0.09765855       3.41272242      -1.44799522       0.00000000
Si       0.12069261       2.69076591       2.58213262       0.00000000
Si       3.09086460      -2.10730698      -0.05717498       0.00000000
