10
Lattice="16.28999089631971 0.0 0.0 0.0 16.28999089631971 0.0 0.0 0.0 34.54679606040008" Properties=species:S:1:pos:R:3:initial_magmoms:R:1 pbc="T T T"
Si       1.45388250      -1.24274781       1.35886444       0.00000000
Si      -1.33563339      -1.36555812      -1.36985032       0.00000000
Si       1.37658645       1.35220032      -1.36000448       0.00000000
Si      -1.50294798       1.31621571       1.40702270       0.00000000
Si      -2.67100614      -2.71147050      -0.00632207       0.00000000
Si       2.38786965       0.29196567       2.95966022       0.00000000
Si      -2.70891297       2.70467757      -0.01896620       0.00000000
Si      -2.69247636      -0.00711873      -2.72539826       0.00000000
Si       0.02225214       2.70863604      -2.72629648       0.00000000
Si       0.02114442      -2.72223819      -2.72577828       0.00000000
