10
Lattice="16.28999089631971 0.0 0.0 0.0 16.28999089631971 0.0 0.0 0.0 34.54679606040008" Properties=species:S:1:pos:R:3:initial_magmoms:R:1 pbc="T T T"
Si      -1.17981954      -1.58032548       1.39206393       0.00000000
Si       0.96839163      -1.48975308      -1.65762529       0.00000000
Si      -1.63043352       0.78045390      -1.70270889       0.00000000
Si       2.24702631      -0.10529856       1.06867119       0.00000000
Si      -0.70493346       2.35421451       0.41528727       0.00000000
Si       2.44921779      -2.22827652       0.04307988       0.00000000
Si       0.58546260      -3.27947022       1.34539118       0.00000000
Si      -3.07472121       2.01846132      -0.25198447       0.00000000
Si      -0.29367612       2.37987126      -2.87001123       0.00000000
Si       2.43737496      -0.25405884      -2.91478391       0.00000000
