10
Lattice="16.28999089631971 0.0 0.0 0.0 16.28999089631971 0.0 0.0 0.0 34.54679606040008" Properties=species:S:1:pos:R:3:initial_magmoms:R:1 pbc="T T T"
Si      -1.46898333      -1.23569424       1.25715861       0.00000000
Si       1.61728749       1.05611328       1.35496065       0.00000000
Si       1.19747790      -1.51615917      -1.36052268       0.00000000
Si      -1.49721390       1.21064022      -1.37088673       0.00000000
Si       0.01184283      -1.97421768       2.95786378       0.00000000
Si       2.55560778      -0.15687270      -2.72971662       0.00000000
Si      -0.16184115       2.55655260      -2.73441498       0.00000000
Si       2.62767474       2.67936291      -0.00570022       0.00000000
Si      -2.73105108       2.63393010       0.04477267       0.00000000
Si      -2.43737496       0.25405884       2.91478391       0.00000000
