10
Lattice="16.28999089631971 0.0 0.0 0.0 16.28999089631971 0.0 0.0 0.0 34.54679606040008" Properties=species:S:1:pos:R:3:initial_magmoms:R:1 pbc="T T T"
Si      -0.41161572      -2.22444837       0.82328516       0.00000000
Si      -2.24476200       0.43238547      -0.93186580       0.00000000
Si       0.15566724       0.17888049      -2.46736810       0.00000000
Si      -0.26220384       0.14079447       2.46101149       0.00000000
Si       2.62409094       0.27445392      -0.77564510       0.00000000
Si      -2.14920486      -0.96301593      -2.88718100       0.00000000
Si       1.03229730      -3.71868120      -0.29806992       0.00000000
Si      -3.77859582      -1.08782991       0.03002118       0.00000000
Si      -2.51475246      -3.02857164       0.06622625       0.00000000
Si      -0.12292434       2.47246362      -3.08865803       0.00000000
