10
Lattice="16.28999089631971 0.0 0.0 0.0 16.28999089631971 0.0 0.0 0.0 34.54679606040008" Properties=species:S:1:pos:R:3:initial_magmoms:R:1 pbc="T T T"
Si       1.35605294       1.35751086       1.35724074       0.00000000
Si      -1.35683220       1.35769005      -1.35765530       0.00000000
Si      -1.35947118      -1.35712804       1.35575522       0.00000000
Si       1.35745551      -1.35729257      -1.35765530       0.00000000
Si      -2.71479918       0.00118917       2.70988674       0.00000000
Si       2.71280795      -0.00022806      -2.71555242       0.00000000
Si      -2.71385436       0.00102627      -2.71461966       0.00000000
Si      -0.00039671       2.71463076      -2.71448147       0.00000000
Si      -2.71486434      -2.71439409      -0.00031092       0.00000000
Si       2.71494194      -2.71452186      -0.00038001       0.00000000
