10
Lattice="16.28999089631971 0.0 0.0 0.0 16.28999089631971 0.0 0.0 0.0 34.54679606040008" Properties=species:S:1:pos:R:3:initial_magmoms:R:1 pbc="T T T"
Si      -1.34820927       1.33174716      -1.34689742       0.00000000
Si       1.34231229       1.35624569       1.34952989       0.00000000
Si       1.32053256      -1.38380629      -1.36293060       0.00000000
Si      -1.37401263      -1.35324625       1.34555700       0.00000000
Si      -2.22523029      -0.46804765      -2.73063698       0.00000000
Si      -0.40953060      -2.19943030      -2.77682608       0.00000000
Si       2.47953348       0.08322617      -2.83227371       0.00000000
Si       2.69428455      -2.70712444       0.00269811       0.00000000
Si       2.69926929      -0.00011740       2.70911980       0.00000000
Si      -0.01532889      -2.71486219       2.70708154       0.00000000
