10
Lattice="16.28999089631971 0.0 0.0 0.0 16.28999089631971 0.0 0.0 0.0 34.54679606040008" Properties=species:S:1:pos:R:3:initial_magmoms:R:1 pbc="T T T"
Si      -1.35532800       1.35831722       1.35413152       0.00000000
Si      -1.35539316      -1.35726604      -1.35606614       0.00000000
Si       1.35947118       1.35712804      -1.35575522       0.00000000
Si       1.35829278      -1.35716504       1.36100634       0.00000000
Si      -0.00395847       2.70983335       2.69831356       0.00000000
Si      -2.71077003       2.71516019       0.00120914       0.00000000
Si      -2.71238274       0.00000489      -2.71389417       0.00000000
Si      -2.71336014      -2.71432029       0.00069094       0.00000000
Si       0.00179190      -2.71427142      -2.71344507       0.00000000
Si       0.00263898       2.71481810      -2.71341052       0.00000000
