10
Lattice="16.28999089631971 0.0 0.0 0.0 16.28999089631971 0.0 0.0 0.0 34.54679606040008" Properties=species:S:1:pos:R:3:initial_magmoms:R:1 pbc="T T T"
Si      -1.35560493      -1.35821133      -1.37109401       0.00000000
Si       1.35812988       1.35928647      -1.36919393       0.00000000
Si      -1.19747790       1.51615917       1.36052268       0.00000000
Si       1.23491232      -1.54688211       1.34684214       0.00000000
Si      -2.66646123       0.28046493       2.61768129       0.00000000
Si       0.41980959       2.57227245       2.71548333       0.00000000
Si      -2.69469180       2.72679939      -0.01036404       0.00000000
Si       2.70796815      -2.71893132      -0.03271583       0.00000000
Si       2.71117728       2.71710684      -0.00196917       0.00000000
Si      -2.69193879      -2.73875625      -0.00832578       0.00000000
