10
Lattice="16.28999089631971 0.0 0.0 0.0 16.28999089631971 0.0 0.0 0.0 34.54679606040008" Properties=species:S:1:pos:R:3:initial_magmoms:R:1 pbc="T T T"
Si       1.06746741       1.67878224       1.22295726       0.00000000
Si       0.80088156      -2.10663909       0.72987057       0.00000000
Si      -2.28998304       0.00066789       0.78704555       0.00000000
Si       0.82534914       0.39503250      -2.24882495       0.00000000
Si      -3.43503972      -0.12253338      -1.19310882       0.00000000
Si       0.84141108      -1.91581803       3.08979807       0.00000000
Si      -0.51596946      -3.77318428      -0.29882995       0.00000000
Si       3.24109098       0.98130960       1.78268477       0.00000000
Si       3.09793446       1.16196570      -2.00288617       0.00000000
Si       1.07171910      -1.74457755      -3.30440289       0.00000000
