10
Lattice="16.28999089631971 0.0 0.0 0.0 16.28999089631971 0.0 0.0 0.0 34.54679606040008" Properties=species:S:1:pos:R:3:initial_magmoms:R:1 pbc="T T T"
Si      -1.75345560      -1.08750411      -1.11192380       0.00000000
Si       0.67020776      -1.78696413       1.40729907       0.00000000
Si      -1.79954001       0.97827966       1.38356541       0.00000000
Si       1.97911350       0.83914677      -1.37085218       0.00000000
Si       1.59019137      -2.71549413      -0.74690215       0.00000000
Si      -0.19831446      -2.42149221      -2.32413700       0.00000000
Si       3.34582658      -0.91307079      -0.63445226       0.00000000
Si      -2.14031052       2.87461485      -0.07127008       0.00000000
Si       1.97239061      -0.52097049       2.96999114       0.00000000
Si      -2.49381981       0.42614640      -2.81591092       0.00000000
