10
Lattice="16.28999089631971 0.0 0.0 0.0 16.28999089631971 0.0 0.0 0.0 34.54679606040008" Properties=species:S:1:pos:R:3:initial_magmoms:R:1 pbc="T T T"
Si       0.96576894      -2.09578995      -0.21128832       0.00000000
Si      -1.95373952      -0.05672178       1.44253682       0.00000000
Si       1.81449423       1.63411506       0.02369912       0.00000000
Si      -1.95721092       0.89955009      -1.39258213       0.00000000
Si      -0.43015374       1.69468128      -3.00187643       0.00000000
Si       1.71312156       2.19947580      -2.30914369       0.00000000
Si      -2.30412439       2.23107840       1.83212126       0.00000000
Si       1.54748484      -2.75167422       1.92463763       0.00000000
Si      -1.15205812      -1.08681993       3.37867854       0.00000000
Si      -0.62385813      -3.68885421      -0.83326919       0.00000000
