10
Lattice="16.28999089631971 0.0 0.0 0.0 16.28999089631971 0.0 0.0 0.0 34.54679606040008" Properties=species:S:1:pos:R:3:initial_magmoms:R:1 pbc="T T T"
Si       0.58171590      -0.65588427       2.13592595       0.00000000
Si      -0.96576894       2.09578995       0.21128832       0.00000000
Si      -1.58962707      -1.59306426      -0.62198086       0.00000000
Si       1.68722046      -0.60597171      -1.53664235       0.00000000
Si       0.39941451      -2.50626537      -2.07484718       0.00000000
Si       2.11584294      -2.30241231       1.67413867       0.00000000
Si       3.37307256      -1.26819279      -0.03240491       0.00000000
Si      -1.41612228      -1.23251769       3.22801988       0.00000000
Si      -2.74295907      -2.16195993       1.48230021       0.00000000
Si       0.84872529       3.72990501       0.23498744       0.00000000
