10
Lattice="16.28999089631971 0.0 0.0 0.0 16.28999089631971 0.0 0.0 0.0 34.54679606040008" Properties=species:S:1:pos:R:3:initial_magmoms:R:1 pbc="T T T"
Si      -0.24237891      -2.35353033       0.10246585       0.00000000
Si      -0.40254219       0.81435339       2.21210168       0.00000000
Si       2.39569604       0.25303257      -0.24597333       0.00000000
Si      -1.43130456       1.12086603      -1.63527351       0.00000000
Si       0.97434157       2.69443116       1.88667068       0.00000000
Si       1.09558951      -3.01485546      -1.69085933       0.00000000
Si       2.92293818       1.30013748       1.80804213       0.00000000
Si       3.09038309      -1.93233609      -0.90402106       0.00000000
Si      -2.57414580      -2.70097974       0.44282108       0.00000000
Si      -1.84073742       3.42591732      -1.09316488       0.00000000
