10
Lattice="16.28999089631971 0.0 0.0 0.0 16.28999089631971 0.0 0.0 0.0 34.54679606040008" Properties=species:S:1:pos:R:3:initial_magmoms:R:1 pbc="T T T"
Si       1.35721764       1.35537223       1.35665344       0.00000000
Si      -1.35685926      -1.35774097       1.35699891       0.00000000
Si      -1.35748642       1.35722929      -1.35727528       0.00000000
Si       1.35824391      -1.35765952      -1.35734438       0.00000000
Si      -2.71566422      -0.00112606      -2.71365235       0.00000000
Si      -2.71460853      -2.71481200       0.00048366       0.00000000
Si      -2.71494194       2.71452186       0.00038001       0.00000000
Si      -0.00213399       2.71429380      -2.71517241       0.00000000
Si       2.71538010       2.71483137      -0.00027637       0.00000000
Si       2.71554300      -2.71512151      -0.00013819       0.00000000
