10
Lattice="16.28999089631971 0.0 0.0 0.0 16.28999089631971 0.0 0.0 0.0 34.54679606040008" Properties=species:S:1:pos:R:3:initial_magmoms:R:1 pbc="T T T"
Si       1.35021294       1.36554183      -1.34693542       0.00000000
Si      -1.36264221      -1.35125550      -1.35123304       0.00000000
Si       1.35623888      -1.35760860       1.35806986       0.00000000
Si      -1.35940050       1.35780408       1.35744802       0.00000000
Si       2.66185346      -0.04338027      -2.62137780       0.00000000
Si      -0.02353905       2.68885998      -2.71256412       0.00000000
Si       2.71377458       0.00058644       2.71593244       0.00000000
Si      -0.00148239      -2.71417464       2.71593244       0.00000000
Si      -0.00175932       2.71679733       2.71582880       0.00000000
Si      -2.71687878       0.00087966       2.71586334       0.00000000
