10
Lattice="16.28999089631971 0.0 0.0 0.0 16.28999089631971 0.0 0.0 0.0 34.54679606040008" Properties=species:S:1:pos:R:3:initial_magmoms:R:1 pbc="T T T"
Si       1.37375199      -1.32331815       1.36562870       0.00000000
Si      -1.32053256       1.38380629       1.36293060       0.00000000
Si       1.15900092       1.46703246      -1.46934312       0.00000000
Si      -1.73006316      -0.81562401      -1.41389548       0.00000000
Si      -0.31843692      -1.21959972      -3.38396217       0.00000000
Si      -2.66449014      -2.65797414      -0.03402170       0.00000000
Si      -2.66874183       2.71555344       0.01603318       0.00000000
Si       1.71894916       0.25860375      -3.39225341       0.00000000
Si       0.02353905      -2.68885998       2.71256412       0.00000000
Si      -2.69454519       0.03056004       2.70848760       0.00000000
