10
Lattice="16.28999089631971 0.0 0.0 0.0 16.28999089631971 0.0 0.0 0.0 34.54679606040008" Properties=species:S:1:pos:R:3:initial_magmoms:R:1 pbc="T T T"
Si      -0.04456944       2.35235745       0.22514160       0.00000000
Si       1.88172306      -1.00442511      -1.03840818       0.00000000
Si      -0.11688075      -1.14790743       2.08355298       0.00000000
Si      -2.04921358      -0.94894137      -0.77122311       0.00000000
Si       0.65032938      -2.61379566      -2.22526402       0.00000000
Si      -1.34750880      -3.19042908      -1.13317009       0.00000000
Si      -3.55254668      -0.43090308       0.96655080       0.00000000
Si      -1.34175843       2.79590157       2.13292038       0.00000000
Si       2.74839993      -2.52872928       0.51412571       0.00000000
Si       0.99548190       0.05929560       3.69640560       0.00000000
