10
Lattice="16.28999089631971 0.0 0.0 0.0 16.28999089631971 0.0 0.0 0.0 34.54679606040008" Properties=species:S:1:pos:R:3:initial_magmoms:R:1 pbc="T T T"
Si       0.27997623       2.12059052       1.01733462       0.00000000
Si       1.46311146       0.34675992      -1.87198828       0.00000000
Si       0.78327616      -1.38882024       1.80980402       0.00000000
Si      -2.03180283      -0.65733408      -1.17003154       0.00000000
Si      -1.68585210       0.24340518      -3.32865475       0.00000000
Si      -1.62236997      -2.96238537      -1.71214017       0.00000000
Si      -1.47295809       3.48548075       0.21508847       0.00000000
Si       0.23091075      -0.23024286       3.77786699       0.00000000
Si       1.43145836       2.70305576      -2.32883537       0.00000000
Si       0.46079523      -0.68776380      -3.75506610       0.00000000
