10
Lattice="16.28999089631971 0.0 0.0 0.0 16.28999089631971 0.0 0.0 0.0 34.54679606040008" Properties=species:S:1:pos:R:3:initial_magmoms:R:1 pbc="T T T"
Si       1.36671308      -1.75221756       0.73639992       0.00000000
Si      -0.44711163       0.04688262      -2.32942267       0.00000000
Si       1.12242824       2.16165042      -0.01150409       0.00000000
Si      -1.97911350      -0.83914677       1.37085218       0.00000000
Si      -0.38892212      -3.55464090       0.62395003       0.00000000
Si       1.88335043      -0.69980211       3.09242363       0.00000000
Si       2.52688688       1.96786458      -1.93330888       0.00000000
Si      -1.37846862      -2.06632134      -2.87484779       0.00000000
Si       1.60034426       0.40824369      -3.46497649       0.00000000
Si      -0.48012820       3.91318380      -0.14955316       0.00000000
