10
Lattice="16.28999089631971 0.0 0.0 0.0 16.28999089631971 0.0 0.0 0.0 34.54679606040008" Properties=species:S:1:pos:R:3:initial_magmoms:R:1 pbc="T T T"
Si      -1.78850583       0.29400192      -1.57723486       0.00000000
Si       0.71286343      -2.05850214      -1.17531721       0.00000000
Si       1.75563520       1.80242334       0.11244988       0.00000000
Si      -0.91998361       0.92853000       2.15420122       0.00000000
Si      -1.59019137       2.71549413       0.74690215       0.00000000
Si       2.65495723      -2.28612231       0.16509923       0.00000000
Si       0.38892212       3.55464090      -0.62395003       0.00000000
Si      -3.34364697       1.62799002      -0.36502165       0.00000000
Si      -0.98954649       1.48831956      -3.49879782       0.00000000
Si       1.74204934      -1.49335317      -3.27590177       0.00000000
