10
Lattice="16.28999089631971 0.0 0.0 0.0 16.28999089631971 0.0 0.0 0.0 34.54679606040008" Properties=species:S:1:pos:R:3:initial_magmoms:R:1 pbc="T T T"
Si      -1.89007331      -0.66031515       1.24841969       0.00000000
Si       1.81148058      -1.63540197       0.12091389       0.00000000
Si       0.74354076       2.07764289       1.23313272       0.00000000
Si      -0.51663735      -1.05241545      -2.35602371       0.00000000
Si      -0.55034136      -1.83505221       2.78280267       0.00000000
Si       2.18745378       0.90416016       2.75659891       0.00000000
Si       0.78011181      -3.28272822       1.43857918       0.00000000
Si      -1.88335043       0.69980211      -3.09242363       0.00000000
Si      -3.19225617      -1.92630879      -0.31427238       0.00000000
Si       3.53509290      -0.53766774       1.33842105       0.00000000
