10
Lattice="16.28999089631971 0.0 0.0 0.0 16.28999089631971 0.0 0.0 0.0 34.54679606040008" Properties=species:S:1:pos:R:3:initial_magmoms:R:1 pbc="T T T"
Si       1.44391302      -1.17348273       1.52346619       0.00000000
Si       0.88352073       1.90136880      -1.23492916       0.00000000
Si      -1.27821114       1.50294798       1.54866118       0.00000000
Si      -0.74354076      -2.07764289      -1.23313272       0.00000000
Si      -2.63361407      -2.73795804       0.01528697       0.00000000
Si       2.79155214      -2.61531063       0.10528833       0.00000000
Si      -0.96917355       3.56415426      -1.08152847       0.00000000
Si       0.07506432      -2.53599462       2.90928751       0.00000000
Si      -2.69199255       2.84881149       0.29063890       0.00000000
Si      -2.63579042       0.17666505       2.91243127       0.00000000
