10
Lattice="16.28999089631971 0.0 0.0 0.0 16.28999089631971 0.0 0.0 0.0 34.54679606040008" Properties=species:S:1:pos:R:3:initial_magmoms:R:1 pbc="T T T"
Si       0.95784386      -1.21124295       1.69866691       0.00000000
Si      -1.20040914      -1.49227803      -1.29609287       0.00000000
Si       1.56552602       1.30906440      -1.25529308       0.00000000
Si      -2.47702386      -0.03205872      -2.67347440       0.00000000
Si       0.22914491       2.69260668      -2.65188264       0.00000000
Si       0.25167887      -2.74921443      -2.67074520       0.00000000
Si      -0.56921332      -2.00637414       3.30796121       0.00000000
Si       2.91570637       2.62669734       0.29706807       0.00000000
Si       2.91800326      -2.66892102       0.34484631       0.00000000
Si       3.10111915      -0.70644843       2.39139965       0.00000000
