10
Lattice="16.28999089631971 0.0 0.0 0.0 16.28999089631971 0.0 0.0 0.0 34.54679606040008" Properties=species:S:1:pos:R:3:initial_magmoms:R:1 pbc="T T T"
Si       2.15037794       0.58269330       0.78725283       0.00000000
Si      -0.77040996      -2.04586110       0.89838993       0.00000000
Si      -1.35979845       1.72322136       0.87814550       0.00000000
Si      -3.17145822      -1.51322697       1.05436880       0.00000000
Si      -1.71153213       1.06220574      -3.23810755       0.00000000
Si       3.06413291       2.03413230      -1.40895732       0.00000000
Si      -0.24737064       3.81663297       1.02310394       0.00000000
Si       0.54327170      -3.92523840      -0.21425935       0.00000000
Si       0.19635823      -2.59371009       3.01044404       0.00000000
Si       3.48648374      -1.11008205       1.88376875       0.00000000
