10
Lattice="16.28999089631971 0.0 0.0 0.0 16.28999089631971 0.0 0.0 0.0 34.54679606040008" Properties=species:S:1:pos:R:3:initial_magmoms:R:1 pbc="T T T"
Si       1.24916607       1.14218964      -1.62884780       0.00000000
Si       0.52724214       1.04710491       2.05401545       0.00000000
Si       0.69468705      -2.18536866      -0.65804774       0.00000000
Si      -2.39569604      -0.25303257       0.24597333       0.00000000
Si      -1.42135447       2.44139859       2.13264401       0.00000000
Si       1.99001898      -1.78425999      -2.57156130       0.00000000
Si      -2.63807495      -2.60656290       0.34843918       0.00000000
Si       0.65391318      -0.09148464      -3.66807722       0.00000000
Si      -2.79823823       0.56132082       2.45807501       0.00000000
Si       0.44883837      -0.57785517       3.72729046       0.00000000
