10
Lattice="16.28999089631971 0.0 0.0 0.0 16.28999089631971 0.0 0.0 0.0 34.54679606040008" Properties=species:S:1:pos:R:3:initial_magmoms:R:1 pbc="T T T"
Si      -1.29718899       0.44354412       1.90777879       0.00000000
Si       0.04456944      -2.35235745      -0.22514160       0.00000000
Si       2.09689767       1.04664879       0.33762603       0.00000000
Si      -1.16191683       1.09911888      -1.75608372       0.00000000
Si      -3.44195387      -0.41658417       1.14149587       0.00000000
Si      -1.85660388       3.28448754      -1.09803598       0.00000000
Si      -0.07231131      -3.50026488       1.85841139       0.00000000
Si       0.13341510       1.50022755      -3.66959728       0.00000000
Si      -0.38600784      -0.48935160       3.93685144       0.00000000
Si      -2.00464414      -3.30129882      -0.99636470       0.00000000
