10
Lattice="16.28999089631971 0.0 0.0 0.0 16.28999089631971 0.0 0.0 0.0 34.54679606040008" Properties=species:S:1:pos:R:3:initial_magmoms:R:1 pbc="T T T"
Si      -0.01066995       1.78601931      -1.47241982       0.00000000
Si      -0.92654262      -1.55962089      -1.53166761       0.00000000
Si      -1.40445864       0.19378584       1.92180479       0.00000000
Si       2.16336087       0.30678957       0.97304560       0.00000000
Si       0.76378923       1.25690382       2.61574667       0.00000000
Si      -2.97399851      -1.92098196      -0.39611378       0.00000000
Si       1.73871315       1.16882379      -3.01096224       0.00000000
Si      -2.52688688      -1.96786458       1.93330888       0.00000000
Si      -1.94830029       1.63636308      -2.83926457       0.00000000
Si       0.57894660       3.82212270      -0.36902908       0.00000000
