10
Lattice="16.28999089631971 0.0 0.0 0.0 16.28999089631971 0.0 0.0 0.0 34.54679606040008" Properties=species:S:1:pos:R:3:initial_magmoms:R:1 pbc="T T T"
Si      -1.35506736       1.35495333      -1.36269913       0.00000000
Si       1.35900954      -1.36088289      -1.36245730       0.00000000
Si       1.34387613       1.36417347       1.38691645       0.00000000
Si      -1.36720178      -1.34936586       1.38708918       0.00000000
Si       2.64559374      -0.13403412       2.73938972       0.00000000
Si      -2.71432844       2.71292308      -0.00255646       0.00000000
Si      -2.71174283      -2.71863810      -0.00342013       0.00000000
Si       2.71562445       2.71511946      -0.00013819       0.00000000
Si      -2.71281663      -0.00211770      -2.71921438       0.00000000
Si       0.00179190       2.71269430      -2.71969804       0.00000000
