10
Lattice="16.28999089631971 0.0 0.0 0.0 16.28999089631971 0.0 0.0 0.0 34.54679606040008" Properties=species:S:1:pos:R:3:initial_magmoms:R:1 pbc="T T T"
Si       1.51700625       1.53314542       1.08957201       0.00000000
Si      -1.21943356       1.36770093      -1.63361526       0.00000000
Si      -1.29094503      -1.37435472       1.74972710       0.00000000
Si       1.48486608      -1.32929658      -1.63430619       0.00000000
Si      -2.63857994      -2.60317458       0.04390900       0.00000000
Si      -2.70515717       2.72345084      -0.27972556       0.00000000
Si      -2.57333849       0.01945303      -3.02377911       0.00000000
Si       2.78658369      -2.82750417      -0.28183292       0.00000000
Si       0.14098995      -2.69347005      -3.02122264       0.00000000
Si       0.14514390       2.73439772      -3.02115355       0.00000000
