10
Lattice="16.28999089631971 0.0 0.0 0.0 16.28999089631971 0.0 0.0 0.0 34.36671206372826" Properties=species:S:1:pos:R:3:initial_magmoms:R:1 pbc="T T T"
Si       0.46865190       2.11133943       0.77105198       0.00000000
Si       0.97439124      -1.71411525       1.18520546       0.00000000
Si      -2.23775960      -0.38871198       0.59505995       0.00000000
Si       0.37718681      -0.25423803      -2.32422204       0.00000000
Si      -0.51614702      -3.45286098       0.54460959       0.00000000
Si      -3.09717113       1.72974145      -0.08395792       0.00000000
Si      -2.56696421      -2.54093049      -0.35133109       0.00000000
Si      -1.77274526      -0.55682478      -3.15318196       0.00000000
Si       2.48142801       2.71192240      -0.26685767       0.00000000
Si       1.74404487      -2.19753729      -2.41680601       0.00000000
