10
Lattice="16.28999089631971 0.0 0.0 0.0 16.28999089631971 0.0 0.0 0.0 34.36671206372826" Properties=species:S:1:pos:R:3:initial_magmoms:R:1 pbc="T T T"
Si      -0.75209301       2.18992986       0.42243586       0.00000000
Si       2.16681435       0.35354187      -0.90985921       0.00000000
Si       0.02907765      -2.01017690       1.30222418       0.00000000
Si      -1.85178204      -0.59790979      -1.41188842       0.00000000
Si      -2.57111586       1.36003581       1.63107943       0.00000000
Si       1.22792391      -3.27232610      -0.30400810       0.00000000
Si      -0.96844050       2.85426864      -1.80256942       0.00000000
Si       2.56971492      -1.87509075      -1.70472734       0.00000000
Si       3.45232341       0.75078981       1.09739846       0.00000000
Si       1.32339960       2.43623466      -2.45103527       0.00000000
