10
Lattice="16.28999089631971 0.0 0.0 0.0 16.28999089631971 0.0 0.0 0.0 34.36671206372826" Properties=species:S:1:pos:R:3:initial_magmoms:R:1 pbc="T T T"
Si       0.98191233      -0.94833049      -1.89618440       0.00000000
Si      -1.98780354      -1.17168904       0.44759231       0.00000000
Si      -1.05425622       2.07736759      -0.58344400       0.00000000
Si       1.85178204       0.59790979       1.41188842       0.00000000
Si      -1.67019741      -0.25813786       2.63166681       0.00000000
Si       1.42146540      -2.91244579      -0.63856823       0.00000000
Si      -0.92978433      -3.27427927      -0.12145203       0.00000000
Si       1.09968903       2.78783965       1.83432428       0.00000000
Si       0.88334154       3.45217843      -0.39068100       0.00000000
Si      -2.19115161       1.30595464      -2.52557671       0.00000000
