10
Lattice="16.28999089631971 0.0 0.0 0.0 16.28999089631971 0.0 0.0 0.0 34.36671206372826" Properties=species:S:1:pos:R:3:initial_magmoms:R:1 pbc="T T T"
Si      -1.20117573      -0.36288160      -1.94391979       0.00000000
Si       0.40490424      -1.83618178       1.39126838       0.00000000
Si       2.16075447       0.51017348      -0.74001882       0.00000000
Si      -1.64794527       1.02483485       1.35569882       0.00000000
Si      -3.24438156      -0.67827229       1.17448304       0.00000000
Si       0.88387911      -0.68021080       3.38244243       0.00000000
Si      -1.86794172      -2.52262609       1.77837524       0.00000000
Si      -3.42339237      -0.94246351      -1.17369261       0.00000000
Si       3.39066576       1.21846919       1.11781230       0.00000000
Si      -1.07285940       0.63329167       3.62074134       0.00000000
