10
Lattice="16.28999089631971 0.0 0.0 0.0 16.28999089631971 0.0 0.0 0.0 34.36671206372826" Properties=species:S:1:pos:R:3:initial_magmoms:R:1 pbc="T T T"
Si       0.99232164       0.32558497       2.19709060       0.00000000
Si      -0.62359749      -2.28753369       0.61231205       0.00000000
Si       1.04417271      -0.61129202      -2.23438740       0.00000000
Si      -0.68344695       2.42950363      -0.57241228       0.00000000
Si      -2.98548459       0.61535149       1.13699688       0.00000000
Si      -1.53516960       0.68981308      -2.80295060       0.00000000
Si      -2.91033882       1.39156999      -1.06925211       0.00000000
Si       2.67788052      -2.13761682      -1.34562936       0.00000000
Si      -0.88545924       1.08903211       3.57019960       0.00000000
Si      -2.28758841       2.44066228       2.34374375       0.00000000
