10
Lattice="16.28999089631971 0.0 0.0 0.0 16.28999089631971 0.0 0.0 0.0 34.36671206372826" Properties=species:S:1:pos:R:3:initial_magmoms:R:1 pbc="T T T"
Si       0.89243136       2.10996225      -0.46157957       0.00000000
Si       1.56659301      -1.42141653       1.02505649       0.00000000
Si      -0.05411538      -0.95532705      -2.15097934       0.00000000
Si      -2.26683495      -0.00522909       0.79191259       0.00000000
Si      -1.98296541      -2.39482548      -1.92161578       0.00000000
Si      -0.81355518       3.22926444      -1.70493354       0.00000000
Si       0.32511582      -2.85048936       2.43488291       0.00000000
Si       1.15939188       3.25115820       1.57767353       0.00000000
Si       3.23986923      -1.95866073      -0.72616903       0.00000000
Si       2.27043504      -1.34827443      -2.83236852       0.00000000
