10
Lattice="16.28999089631971 0.0 0.0 0.0 16.28999089631971 0.0 0.0 0.0 34.36671206372826" Properties=species:S:1:pos:R:3:initial_magmoms:R:1 pbc="T T T"
Si       1.35586557       1.35518139       1.35738278       0.00000000
Si      -1.35694071       1.35674523      -1.35679855       0.00000000
Si       1.35666378      -1.35809730      -1.35597375       0.00000000
Si      -1.35765747      -1.35830907       1.35786392       0.00000000
Si       0.00017919       2.71334385      -2.71222243       0.00000000
Si       2.71311579      -0.00158013      -2.71510924       0.00000000
Si       0.00340461       2.71397916       2.71455937       0.00000000
Si      -2.71425609       2.71428867       0.00044677       0.00000000
Si       2.71508688       2.71381626       0.00103100       0.00000000
Si      -2.71531494       0.00014661      -2.71407824       0.00000000
