10
Lattice="16.28999089631971 0.0 0.0 0.0 16.28999089631971 0.0 0.0 0.0 34.36671206372826" Properties=species:S:1:pos:R:3:initial_magmoms:R:1 pbc="T T T"
Si       1.81902285       0.82989405      -1.20864357       0.00000000
Si       1.16398566      -0.06441066       2.08578565       0.00000000
Si      -1.75381398       1.63877400      -0.12825664       0.00000000
Si      -0.95086359      -2.21608345      -0.41130104       0.00000000
Si       2.57111586      -1.36003581      -1.63107943       0.00000000
Si      -3.13132570       0.49715451       1.36961734       0.00000000
Si      -2.93389090      -1.73100961       0.70273092       0.00000000
Si      -2.04792993       1.35969372      -2.48866684       0.00000000
Si      -0.33492240       0.11942199      -3.62641185       0.00000000
Si       2.48394807       2.71129131       0.05749554       0.00000000
