10
Lattice="16.28999089631971 0.0 0.0 0.0 16.28999089631971 0.0 0.0 0.0 34.36671206372826" Properties=species:S:1:pos:R:3:initial_magmoms:R:1 pbc="T T T"
Si       0.77528997       2.15757792      -0.60138343       0.00000000
Si      -1.40548491       0.46165860       1.86439517       0.00000000
Si       1.70598654      -1.11930219       1.24335397       0.00000000
Si      -1.35886293      -1.13194323      -1.67991456       0.00000000
Si       0.15055218      -2.84838795      -2.24497235       0.00000000
Si      -2.59284672       2.35199907       1.05729249       0.00000000
Si      -1.14987852       3.52787643      -0.34672595       0.00000000
Si       0.81355518      -3.22926444       1.70493354       0.00000000
Si       2.82251943       2.42701452       0.69657928       0.00000000
Si       1.97294706       0.02189376       3.28260707       0.00000000
