10
Lattice="16.28999089631971 0.0 0.0 0.0 16.28999089631971 0.0 0.0 0.0 34.36671206372826" Properties=species:S:1:pos:R:3:initial_magmoms:R:1 pbc="T T T"
Si       2.14979130      -0.68580900      -0.69761028       0.00000000
Si       0.03341079       2.30785317       0.60492320       0.00000000
Si      -0.25049133      -0.89047656       2.27583368       0.00000000
Si      -1.22864067      -0.24604416      -2.11582218       0.00000000
Si      -3.35828124      -1.24634790       0.30813211       0.00000000
Si       3.28631202       1.35933534      -0.89387868       0.00000000
Si      -2.05534188      -2.31119262       1.98000486       0.00000000
Si       2.35282986       2.73292443       0.81555690       0.00000000
Si      -2.07695871       0.43145694       3.04410196       0.00000000
Si       1.88283078      -1.82700495      -2.73686338       0.00000000
