10
Lattice="16.28999089631971 0.0 0.0 0.0 16.28999089631971 0.0 0.0 0.0 34.36671206372826" Properties=species:S:1:pos:R:3:initial_magmoms:R:1 pbc="T T T"
Si      -0.54260361      -2.18492883       0.65417073       0.00000000
Si       1.12720284       1.72893915       1.18348712       0.00000000
Si      -2.25061011       0.78350013       0.17905067       0.00000000
Si       1.56776589      -0.30853260      -1.78500802       0.00000000
Si       0.60966954       1.40121693      -3.07846869       0.00000000
Si      -0.74152080       2.68514586       2.43333641       0.00000000
Si       1.28386377      -3.50686233      -0.11409755       0.00000000
Si      -1.48095648       0.30007809      -3.42296080       0.00000000
Si       1.53435510      -2.61638577      -2.38993123       0.00000000
Si      -3.74114837      -0.95524560      -0.46154520       0.00000000
