10
Lattice="16.28999089631971 0.0 0.0 0.0 16.28999089631971 0.0 0.0 0.0 34.36671206372826" Properties=species:S:1:pos:R:3:initial_magmoms:R:1 pbc="T T T"
Si       0.71079460       0.84714516       2.05055975       0.00000000
Si       1.37751172       1.14161949      -1.49787398       0.00000000
Si       0.19743480      -2.22816412      -0.66688642       0.00000000
Si      -2.24540775       0.65847438      -0.05268420       0.00000000
Si      -1.50624900       2.40220485      -1.50808090       0.00000000
Si      -1.39783905      -2.03493051      -2.36556521       0.00000000
Si       3.13132570      -0.49715451      -1.36961734       0.00000000
Si      -2.73425436      -0.07195293       2.18280294       0.00000000
Si      -3.24237204      -1.08727605      -1.19658085       0.00000000
Si       0.85200121       3.15265257       1.71438439       0.00000000
