10
Lattice="16.28999089631971 0.0 0.0 0.0 16.28999089631971 0.0 0.0 0.0 34.36671206372826" Properties=species:S:1:pos:R:3:initial_magmoms:R:1 pbc="T T T"
Si      -1.35716877      -1.35596331      -1.35776082       0.00000000
Si       1.36049193      -1.35627282       1.35635178       0.00000000
Si      -1.35583299       1.35852084       1.35886055       0.00000000
Si       1.35720135       1.35889551      -1.35734842       0.00000000
Si       0.00386073      -2.70684414       2.71139763       0.00000000
Si       0.00643455       2.70379791       2.72266992       0.00000000
Si       2.71295289      -2.71507059      -0.00082480       0.00000000
Si      -2.71486859      -2.71358820      -0.00096227       0.00000000
Si       0.00014661      -2.71350675      -2.71500614       0.00000000
Si       2.71427238       0.00164529      -2.71521234       0.00000000
