10
Lattice="16.28999089631971 0.0 0.0 0.0 16.28999089631971 0.0 0.0 0.0 34.36671206372826" Properties=species:S:1:pos:R:3:initial_magmoms:R:1 pbc="T T T"
Si       0.69789618       1.82531079       1.20674687       0.00000000
Si      -1.96121174      -0.79595872       0.97343113       0.00000000
Si       0.07514577       0.77621850      -2.20624899       0.00000000
Si      -0.83585619      -1.62378883      -2.44685048       0.00000000
Si       2.10002535       0.47368062       2.43320272       0.00000000
Si       2.98548459      -0.61535149      -1.13699688       0.00000000
Si      -2.81785886      -1.14162763      -1.26281348       0.00000000
Si      -0.65824632      -2.22451009       2.42135995       0.00000000
Si       2.30203764       1.81415214      -1.70940916       0.00000000
Si       0.71423505      -3.50980172       1.04843996       0.00000000
