10
Lattice="16.28999089631971 0.0 0.0 0.0 16.28999089631971 0.0 0.0 0.0 34.36671206372826" Properties=species:S:1:pos:R:3:initial_magmoms:R:1 pbc="T T T"
Si      -1.19884626       1.26214920       1.60623229       0.00000000
Si       1.04689314      -2.09429127       0.38765673       0.00000000
Si       1.34179101       1.39723535      -1.40071923       0.00000000
Si      -1.65824055      -0.23802948      -1.74644855       0.00000000
Si       1.98570213      -2.03929623      -1.82267396       0.00000000
Si      -1.22792391       3.27232610       0.30400810       0.00000000
Si      -0.18171495      -1.78917957      -3.03496041       0.00000000
Si       3.47148045       0.73958229      -0.70984483       0.00000000
Si       3.33868437       0.42380064       1.63145747       0.00000000
Si       0.93889044       3.62586797      -0.60585111       0.00000000
