10
Lattice="16.28999089631971 0.0 0.0 0.0 16.28999089631971 0.0 0.0 0.0 34.36671206372826" Properties=species:S:1:pos:R:3:initial_magmoms:R:1 pbc="T T T"
Si      -1.32884046       1.73371116      -0.85267297       0.00000000
Si       0.17901081       0.26419122       2.34817565       0.00000000
Si      -0.72868428      -2.29076496      -0.11653759       0.00000000
Si       2.22221664       0.57958191      -0.77022718       0.00000000
Si      -1.64644659       0.82015998      -3.03674748       0.00000000
Si       1.77544710       1.96729836       2.52939142       0.00000000
Si       0.80554050      -3.25264059       1.51437001       0.00000000
Si       1.55545065      -1.58016258       2.95206785       0.00000000
Si       3.42339237       0.94246351       1.17369261       0.00000000
Si      -0.58842738      -1.28243025      -3.60579181       0.00000000
