10
Lattice="16.28999089631971 0.0 0.0 0.0 16.28999089631971 0.0 0.0 0.0 34.36671206372826" Properties=species:S:1:pos:R:3:initial_magmoms:R:1 pbc="T T T"
Si      -1.05324624       1.66389318       1.31377484       0.00000000
Si       1.66651587      -1.06867287       1.32183727       0.00000000
Si       1.75449816       0.93279798      -1.38714579       0.00000000
Si      -1.85251509      -1.81946268      -0.04255632       0.00000000
Si      -2.41344495       0.31035708       2.69247531       0.00000000
Si       0.31258881      -2.41539486       2.69299081       0.00000000
Si      -2.41246755       3.04003980      -0.11911853       0.00000000
Si       3.07783260      -2.38087635      -0.18638797       0.00000000
Si       1.28963043      -3.56560407      -1.41017150       0.00000000
Si       0.31118787       3.02028003       2.68563633       0.00000000
