10
Lattice="16.28999089631971 0.0 0.0 0.0 16.28999089631971 0.0 0.0 0.0 34.36671206372826" Properties=species:S:1:pos:R:3:initial_magmoms:R:1 pbc="T T T"
Si       0.37810719       1.97963231       1.34899730       0.00000000
Si      -0.75256216      -1.92476207       1.28256641       0.00000000
Si       2.03004351      -0.44751971      -1.27012565       0.00000000
Si      -1.93664317       0.25341522      -1.46271682       0.00000000
Si      -2.90249423      -2.22734882       0.45360649       0.00000000
Si       1.35167904       1.04139836       3.33993078       0.00000000
Si      -2.60287226      -1.99858835      -1.83638629       0.00000000
Si       1.21256244       3.70643747      -0.13385842       0.00000000
Si       2.93003343      -0.58135835       2.58881150       0.00000000
Si      -1.46083507       1.50707407      -3.35694231       0.00000000
