10
Lattice="16.28999089631971 0.0 0.0 0.0 16.28999089631971 0.0 0.0 0.0 34.36671206372826" Properties=species:S:1:pos:R:3:initial_magmoms:R:1 pbc="T T T"
Si       1.82485467       0.70897338      -1.33848108       0.00000000
Si      -1.71499491       1.70689878       0.10763660       0.00000000
Si      -1.31981580      -1.61699427       1.25249552       0.00000000
Si      -0.87470784      -1.85680588      -1.43044646       0.00000000
Si       0.39400623       2.03958945      -2.76490663       0.00000000
Si       2.54179386       2.62397691      -0.23517154       0.00000000
Si      -2.34129654      -0.66773524      -2.77631639       0.00000000
Si      -1.43366661       2.33865756       2.53409966       0.00000000
Si      -0.89819802       3.39281604      -1.31971685       0.00000000
Si      -0.18735129      -1.97266785       3.28040760       0.00000000
