10
Lattice="16.28999089631971 0.0 0.0 0.0 16.28999089631971 0.0 0.0 0.0 34.36671206372826" Properties=species:S:1:pos:R:3:initial_magmoms:R:1 pbc="T T T"
Si      -0.06131556      -1.88791163       1.40872668       0.00000000
Si       2.20032288       0.28080702      -0.90339826       0.00000000
Si      -0.60605316       1.59138639       1.70871388       0.00000000
Si      -1.28550906      -0.39724794      -2.00725767       0.00000000
Si       1.16859573      -1.17961591       3.26655781       0.00000000
Si      -3.45232341      -0.75078981      -1.09739846       0.00000000
Si       1.11428487      -3.59931527       0.23005090       0.00000000
Si      -2.22207003      -2.39808511       2.14874551       0.00000000
Si       0.07141536       3.77194950       1.08547321       0.00000000
Si      -0.88260849      -2.62588056      -2.80212580       0.00000000
