10
Lattice="16.28999089631971 0.0 0.0 0.0 16.28999089631971 0.0 0.0 0.0 34.36671206372826" Properties=species:S:1:pos:R:3:initial_magmoms:R:1 pbc="T T T"
Si      -2.01277611      -0.60058298       1.03790965       0.00000000
Si       1.57835439      -1.62275671      -0.75111928       0.00000000
Si       1.14751647       1.21711875       1.70782034       0.00000000
Si      -0.97357185       0.93823395      -1.99093348       0.00000000
Si      -1.13865471      -0.48113167       3.20091735       0.00000000
Si       2.84988663      -0.17735412      -2.16379813       0.00000000
Si       2.18891988       2.91583995       0.53405900       0.00000000
Si      -2.48142801      -2.71192240       0.26685767       0.00000000
Si      -2.95068426       1.96153917      -1.05883899       0.00000000
Si      -1.35167904      -1.04139836      -3.33993078       0.00000000
