10
Lattice="16.28999089631971 0.0 0.0 0.0 16.28999089631971 0.0 0.0 0.0 34.36671206372826" Properties=species:S:1:pos:R:3:initial_magmoms:R:1 pbc="T T T"
Si      -1.35902583       1.35495333      -1.36380936       0.00000000
Si       1.35550719      -1.36115982      -1.36583700       0.00000000
Si       1.35925389       1.35985662       1.38095836       0.00000000
Si      -1.37362167      -1.37523438       1.36277836       0.00000000
Si       2.70914103      -2.71191033      -0.00522374       0.00000000
Si       2.71109583       2.71412577      -0.00817928       0.00000000
Si      -2.71660185       2.71298547       0.00134030       0.00000000
Si      -2.71552671      -2.71456560      -0.00786998       0.00000000
Si      -0.00133578       2.71342530      -2.72074538       0.00000000
Si       2.71292031      -0.00114030      -2.72150145       0.00000000
