10
Lattice="16.28999089631971 0.0 0.0 0.0 16.28999089631971 0.0 0.0 0.0 34.36671206372826" Properties=species:S:1:pos:R:3:initial_magmoms:R:1 pbc="T T T"
Si       1.03158054      -2.14286805      -0.09602065       0.00000000
Si      -0.17897823       0.07537383       2.39869474       0.00000000
Si      -2.20322250      -0.34148727      -0.91034034       0.00000000
Si       1.38966732       1.96428078      -0.16695358       0.00000000
Si      -0.72734850      -3.26852334       1.05732685       0.00000000
Si      -0.30527460       3.45908376       0.55959349       0.00000000
Si      -2.46223350      -2.65610079      -0.41779635       0.00000000
Si       2.09507319       0.44030241       3.00014691       0.00000000
Si       0.67686579      -2.82494664      -2.33862170       0.00000000
Si      -3.43997559       1.48269951      -0.12787861       0.00000000
