10
Lattice="16.28999089631971 0.0 0.0 0.0 16.28999089631971 0.0 0.0 0.0 34.36671206372826" Properties=species:S:1:pos:R:3:initial_magmoms:R:1 pbc="T T T"
Si       1.37516922      -0.70175691      -1.73369849       0.00000000
Si      -0.07514577      -0.77621850       2.20624899       0.00000000
Si      -1.64659320       1.40427945      -0.92563354       0.00000000
Si       2.22689187       1.03793364       0.49683983       0.00000000
Si      -0.91100196      -2.40000733      -0.24060149       0.00000000
Si       2.91033882      -1.39156999       1.06925211       0.00000000
Si      -2.89300463      -1.91784614       0.94343551       0.00000000
Si       0.62275041       1.04909229       3.41299586       0.00000000
Si      -3.66740747      -0.12973356      -0.57282468       0.00000000
Si       1.54293993       2.68890885       2.05491818       0.00000000
