10
Lattice="16.28999089631971 0.0 0.0 0.0 16.28999089631971 0.0 0.0 0.0 34.36671206372826" Properties=species:S:1:pos:R:3:initial_magmoms:R:1 pbc="T T T"
Si       0.86828958       2.03888898      -0.64667878       0.00000000
Si       1.48730958      -1.48009311      -1.10588705       0.00000000
Si       0.28694835      -0.35997642       2.38975939       0.00000000
Si      -2.04722946      -0.26943660      -1.29796271       0.00000000
Si      -0.94964184       3.45978423       0.00728575       0.00000000
Si      -0.84957237      -2.40512076       2.58602779       0.00000000
Si      -1.11653289      -3.54631671       0.54677469       0.00000000
Si       1.36101321       1.90361682      -2.94498830       0.00000000
Si      -2.82251943      -2.42701452      -0.69657928       0.00000000
Si       1.02556953      -3.67842861      -0.42157669       0.00000000
