10
Lattice="16.28999089631971 0.0 0.0 0.0 16.28999089631971 0.0 0.0 0.0 34.36671206372826" Properties=species:S:1:pos:R:3:initial_magmoms:R:1 pbc="T T T"
Si      -1.16201457      -1.36894644       1.44222879       0.00000000
Si       1.50397425       1.23382089       1.45763195       0.00000000
Si      -0.03336192      -0.52838244      -2.37694060       0.00000000
Si       2.48808573      -0.49371732      -2.52495811       0.00000000
Si      -2.90525634      -2.19928032      -0.06653399       0.00000000
Si      -2.27406771       0.13240512       2.87707418       0.00000000
Si      -1.00703151       1.41903819      -3.37563781       0.00000000
Si       0.42080328      -2.58681942       2.84974576       0.00000000
Si       3.00130218       2.47573791       0.23922754       0.00000000
Si       0.42580431       2.84210001       2.86376051       0.00000000
