10
Lattice="16.28999089631971 0.0 0.0 0.0 16.28999089631971 0.0 0.0 0.0 34.36671206372826" Properties=species:S:1:pos:R:3:initial_magmoms:R:1 pbc="T T T"
Si       2.13944715       0.95180841      -0.37854954       0.00000000
Si       0.97366959      -1.94742063       0.99869721       0.00000000
Si      -1.11915558       0.14864625      -2.13121847       0.00000000
Si      -1.50594534       1.41160995       1.38023666       0.00000000
Si      -0.72777204       2.46953142      -2.26394279       0.00000000
Si       1.65156165       2.63145402      -1.92711446       0.00000000
Si       3.31275069      -0.77812443      -1.43127126       0.00000000
Si       1.00703151      -1.41903819       3.37563781       0.00000000
Si      -0.38934729       3.63133422       1.33528498       0.00000000
Si      -0.18567342      -1.22494284      -3.84065405       0.00000000
