10
Lattice="16.28999089631971 0.0 0.0 0.0 16.28999089631971 0.0 0.0 0.0 34.36671206372826" Properties=species:S:1:pos:R:3:initial_magmoms:R:1 pbc="T T T"
Si      -0.72086508       1.75743036       1.39384589       0.00000000
Si      -2.20664340      -1.02144816       0.28101676       0.00000000
Si       1.45888353      -1.40064678       1.49515901       0.00000000
Si       0.89000415       0.43525251      -2.32291610       0.00000000
Si      -1.73076363      -3.13685127      -0.41975526       0.00000000
Si       0.95625558       3.36910824       1.36453107       0.00000000
Si      -2.85055452       2.41508342       0.70297149       0.00000000
Si      -0.87643458      -0.41350536      -3.72002683       0.00000000
Si       2.90385540      -1.16444178      -2.30624824       0.00000000
Si       3.51223803      -0.15853428       1.75356246       0.00000000
