10
Lattice="16.28999089631971 0.0 0.0 0.0 16.28999089631971 0.0 0.0 0.0 34.36671206372826" Properties=species:S:1:pos:R:3:initial_magmoms:R:1 pbc="T T T"
Si       1.56151053       0.20268181       1.74387104       0.00000000
Si       0.57625875       1.61162997      -1.62633682       0.00000000
Si       0.03733668      -1.86381613      -1.45106649       0.00000000
Si      -2.14799940       0.41288960       0.93350352       0.00000000
Si       1.08437643       2.62695309       1.75304696       0.00000000
Si      -3.37791069      -0.29540612      -0.92432760       0.00000000
Si      -2.20231026      -2.00680975      -2.10300339       0.00000000
Si       3.54025750      -0.78291695       0.79758310       0.00000000
Si       1.57322304       3.35738040      -0.48244017       0.00000000
Si       0.66907917      -3.68410960      -0.15753710       0.00000000
