10
Lattice="16.28999089631971 0.0 0.0 0.0 16.28999089631971 0.0 0.0 0.0 34.36671206372826" Properties=species:S:1:pos:R:3:initial_magmoms:R:1 pbc="T T T"
Si       1.64633256       0.81749736       1.40085670       0.00000000
Si      -2.08042848       0.91852794       0.70297149       0.00000000
Si       0.48884661       0.73042731      -2.23548714       0.00000000
Si       0.47713410      -2.42427128      -0.00917592       0.00000000
Si      -1.08437643      -2.62695309      -1.75304696       0.00000000
Si       2.73425436       0.07195293      -2.18280294       0.00000000
Si      -0.50811768      -1.01532312      -3.37938379       0.00000000
Si       3.44504897       0.91909809      -0.13224318       0.00000000
Si       1.17607284       3.01024539       2.19857727       0.00000000
Si      -2.52278343       0.46890765       2.99722573       0.00000000
