10
Lattice="16.28999089631971 0.0 0.0 0.0 16.28999089631971 0.0 0.0 0.0 34.36671206372826" Properties=species:S:1:pos:R:3:initial_magmoms:R:1 pbc="T T T"
Si       0.85941153      -2.11845343       0.67901788       0.00000000
Si      -2.28385800       0.30946260       0.62932358       0.00000000
Si      -0.12233790      -0.49422640      -2.34470461       0.00000000
Si       1.63923012       1.70198230       0.51316403       0.00000000
Si       3.09717113      -1.72974145       0.08395792       0.00000000
Si      -2.32880211      -1.34207203      -2.43302711       0.00000000
Si       3.56582303       0.38159797       0.85500991       0.00000000
Si      -3.30991623      -1.62801040      -0.28015759       0.00000000
Si       0.63355068      -2.44632226       2.96189673       0.00000000
Si      -3.40016283       1.81166287      -0.78448937       0.00000000
