10
Lattice="16.28999089631971 0.0 0.0 0.0 16.28999089631971 0.0 0.0 0.0 34.36671206372826" Properties=species:S:1:pos:R:3:initial_magmoms:R:1 pbc="T T T"
Si       1.78970085       0.78516171       1.34665147       0.00000000
Si      -0.77465466      -1.88621421       1.22680780       0.00000000
Si       0.89762787       0.76346343      -2.18335280       0.00000000
Si      -2.09798910       1.42746012       0.02604998       0.00000000
Si      -2.03748804       1.28638872      -2.30291466       0.00000000
Si       0.51101730       2.15521587       2.74843263       0.00000000
Si      -2.18597139      -0.57401073       2.73503305       0.00000000
Si      -0.96117516       3.36525336       1.31263528       0.00000000
Si       2.66776443       2.64404619       0.21883982       0.00000000
Si       3.01492062      -0.38854908      -2.46852794       0.00000000
