10
Lattice="16.28999089631971 0.0 0.0 0.0 16.28999089631971 0.0 0.0 0.0 34.36671206372826" Properties=species:S:1:pos:R:3:initial_magmoms:R:1 pbc="T T T"
Si       1.33685255       1.35529542       1.36421833       0.00000000
Si      -1.23497748       1.36876725      -1.46898531       0.00000000
Si      -1.38026799      -1.35830907       1.36136589       0.00000000
Si       1.31497671      -1.45482732      -1.42530519       0.00000000
Si      -0.59549724      -2.22866748      -2.51694242       0.00000000
Si      -2.37713454      -0.48221658      -2.43628129       0.00000000
Si       2.66746211      -2.72448621       0.02222153       0.00000000
Si       2.69126180       2.70277164      -0.03567954       0.00000000
Si       2.69300483       0.00003258       2.72342255       0.00000000
Si      -0.02298230       2.71182888       2.72314762       0.00000000
