10
Lattice="16.28999089631971 0.0 0.0 0.0 16.28999089631971 0.0 0.0 0.0 34.36671206372826" Properties=species:S:1:pos:R:3:initial_magmoms:R:1 pbc="T T T"
Si      -1.35697329       1.35694071      -1.35676418       0.00000000
Si       1.35720135      -1.35661491      -1.35731405       0.00000000
Si       1.35754344       1.35619137       1.35800139       0.00000000
Si      -1.35927018      -1.35786924       1.35672982       0.00000000
Si       2.71532557       0.00164529       2.71060720       0.00000000
Si      -0.00143352       2.71295289      -2.71404387       0.00000000
Si       0.00294849      -2.71191033       2.71569347       0.00000000
Si       2.71458910      -0.00014661      -2.71387203       0.00000000
Si      -2.71490769      -2.71463076       0.00000000       0.00000000
Si      -2.71523349      -0.00177561      -2.71483430       0.00000000
