10
Lattice="16.28999089631971 0.0 0.0 0.0 16.28999089631971 0.0 0.0 0.0 34.36671206372826" Properties=species:S:1:pos:R:3:initial_magmoms:R:1 pbc="T T T"
Si       1.35778213      -1.35454608       1.35260581       0.00000000
Si      -1.35754344      -1.35619137      -1.35800139       0.00000000
Si       1.35761149       1.35892809      -1.35810449       0.00000000
Si      -1.36156707       1.36384767       1.35834505       0.00000000
Si      -2.69869914       0.00752598       2.70174058       0.00000000
Si       2.69369226       0.00827532       2.71332217       0.00000000
Si       2.71353023      -2.71313208      -0.00082480       0.00000000
Si      -0.00034209      -2.71280628      -2.71531544       0.00000000
Si      -2.71451673       0.00074934      -2.71476557       0.00000000
Si      -2.71520091       2.71459818      -0.00226820       0.00000000
