10
Lattice="16.28999089631971 0.0 0.0 0.0 16.28999089631971 0.0 0.0 0.0 34.36671206372826" Properties=species:S:1:pos:R:3:initial_magmoms:R:1 pbc="T T T"
Si      -1.33713207      -1.35632169       1.34339553       0.00000000
Si      -1.35363384       1.35075051      -1.36061326       0.00000000
Si       1.36156707      -1.36384767      -1.35834505       0.00000000
Si       1.35754344       1.35280305       1.39532366       0.00000000
Si       2.48614722      -0.27147285       2.82814142       0.00000000
Si       0.01267362      -2.65986378       2.74191529       0.00000000
Si      -2.70914103       2.71191033       0.00522374       0.00000000
Si       0.00377928       2.71077003      -2.71627771       0.00000000
Si      -2.71143792      -0.00438201      -2.71658701       0.00000000
Si       2.72143469       2.71148679       0.00106537       0.00000000
