10
Lattice="16.28999089631971 0.0 0.0 0.0 16.28999089631971 0.0 0.0 0.0 34.36671206372826" Properties=species:S:1:pos:R:3:initial_magmoms:R:1 pbc="T T T"
Si       1.35363384      -1.35075051       1.36061326       0.00000000
Si      -1.35780408      -1.35513252      -1.35597375       0.00000000
Si       1.35741312       1.36001952      -1.35566445       0.00000000
Si      -1.35550719       1.36115982       1.36583700       0.00000000
Si       0.01650177      -2.70707220       2.70400878       0.00000000
Si       0.00068418      -2.71384884      -2.71249737       0.00000000
Si      -2.71492398       0.00169416      -2.71315033       0.00000000
Si       2.71526607       0.00208512      -2.71311597       0.00000000
Si      -2.71591767      -2.71363707       0.00223384       0.00000000
Si       2.71370223       2.71588509       0.00195890       0.00000000
