10
Lattice="16.28999089631971 0.0 0.0 0.0 16.28999089631971 0.0 0.0 0.0 34.36671206372826" Properties=species:S:1:pos:R:3:initial_magmoms:R:1 pbc="T T T"
Si       1.96380837      -0.93291201       0.78689505       0.00000000
Si      -1.77779286      -1.14813549      -0.99196133       0.00000000
Si      -0.31925142       2.18745378       0.84535286       0.00000000
Si      -1.55764980       1.34382726       2.71648391       0.00000000
Si       1.70109954      -0.58968171       3.14926415       0.00000000
Si      -3.50889858       0.45124929      -1.06956141       0.00000000
Si       2.05252371      -3.19112955      -0.24434746       0.00000000
Si       2.89349563       2.31806700      -0.97701180       0.00000000
Si      -1.76981076      -0.64785330      -3.36519033       0.00000000
Si       1.12572045       2.42365878      -2.95605439       0.00000000
