10
Lattice="16.28999089631971 0.0 0.0 0.0 16.28999089631971 0.0 0.0 0.0 34.36671206372826" Properties=species:S:1:pos:R:3:initial_magmoms:R:1 pbc="T T T"
Si       0.26270883      -0.34323030      -2.36236911       0.00000000
Si      -1.40802615      -1.92366981       0.53797681       0.00000000
Si       2.25033059      -0.65676393       0.70362446       0.00000000
Si      -1.47393549       1.66022793       1.07811873       0.00000000
Si       1.16700796       2.37938256      -0.65602653       0.00000000
Si       2.35330131       1.09333593      -2.36879569       0.00000000
Si       0.18179640      -3.56263929       0.10124439       0.00000000
Si      -1.70109954       0.58968171      -3.14926415       0.00000000
Si      -1.55028672      -1.70377110       2.88384989       0.00000000
Si       3.28338701      -0.89054172      -1.44027534       0.00000000
