10
Lattice="16.28999089631971 0.0 0.0 0.0 16.28999089631971 0.0 0.0 0.0 34.36671206372826" Properties=species:S:1:pos:R:3:initial_magmoms:R:1 pbc="T T T"
Si      -1.37435472       1.35795069       1.24071117       0.00000000
Si      -0.69789618      -1.82531079      -1.20674687       0.00000000
Si       1.40212917      -1.35163017       1.22645585       0.00000000
Si       0.92018952       1.63981656      -1.35807768       0.00000000
Si       1.60414146      -0.01115865      -2.91615603       0.00000000
Si      -0.62275041      -1.04909229      -3.41299586       0.00000000
Si       0.01084914      -2.70882663       2.57971806       0.00000000
Si      -2.65910792      -2.62126951      -0.23331574       0.00000000
Si      -2.70694188       0.01275507       2.58817228       0.00000000
Si       2.71898019       0.01474245       2.58837848       0.00000000
