10
Lattice="16.28999089631971 0.0 0.0 0.0 16.28999089631971 0.0 0.0 0.0 34.36671206372826" Properties=species:S:1:pos:R:3:initial_magmoms:R:1 pbc="T T T"
Si      -1.35628911      -1.35586557      -1.35762335       0.00000000
Si      -1.35811359       1.35940050       1.35569882       0.00000000
Si       1.35914809       1.35826020      -1.35748589       0.00000000
Si       1.36136630      -1.35514881       1.35971972       0.00000000
Si      -2.71047681       2.71756296      -0.00020620       0.00000000
Si      -2.71321353       0.00135207      -2.71507487       0.00000000
Si       0.00156384      -2.71379997      -2.71507487       0.00000000
Si      -2.71370223      -2.71588509      -0.00195890       0.00000000
Si       0.00179190       2.71575477      -2.71493740       0.00000000
Si       2.71682732      -2.71412577      -0.00068733       0.00000000
