10
Lattice="16.28999089631971 0.0 0.0 0.0 16.28999089631971 0.0 0.0 0.0 34.36671206372826" Properties=species:S:1:pos:R:3:initial_magmoms:R:1 pbc="T T T"
Si      -0.63174249       1.82029347      -1.29352940       0.00000000
Si       2.20494924       0.64918908       0.58145073       0.00000000
Si      -0.01242927      -2.28190320      -0.80342544       0.00000000
Si      -1.78843023      -0.10599903       1.66936397       0.00000000
Si       1.90532727       0.42042861       2.87144350       0.00000000
Si      -1.02102462      -2.10188241       2.63651252       0.00000000
Si      -1.79724312      -2.00862216      -2.31432442       0.00000000
Si      -0.66907917       3.68410960       0.15753710       0.00000000
Si      -1.09183725      -3.53260053       0.85277607       0.00000000
Si       3.71331920      -0.87612507      -0.50611885       0.00000000
