10
Lattice="16.28999089631971 0.0 0.0 0.0 16.28999089631971 0.0 0.0 0.0 34.36671206372826" Properties=species:S:1:pos:R:3:initial_magmoms:R:1 pbc="T T T"
Si      -1.63023478      -1.00185129       1.27246259       0.00000000
Si      -1.17690037       1.47567852      -1.34353299       0.00000000
Si       0.97827966       1.78209342       1.11190122       0.00000000
Si       1.56869442      -1.25338518      -1.31098770       0.00000000
Si      -0.19534968      -2.67849954       2.47296125       0.00000000
Si      -2.51281051       0.11285712      -2.70424935       0.00000000
Si      -2.56858181      -2.67432930       0.02309444       0.00000000
Si       0.20305485      -2.60310942      -2.69655120       0.00000000
Si      -2.74601249       2.55977802       0.12963131       0.00000000
Si      -0.82531656       3.49308099       1.13640470       0.00000000
