10
Lattice="16.28999089631971 0.0 0.0 0.0 16.28999089631971 0.0 0.0 0.0 34.36671206372826" Properties=species:S:1:pos:R:3:initial_magmoms:R:1 pbc="T T T"
Si      -1.33685255      -1.35529542      -1.36421833       0.00000000
Si       1.35615227      -1.35526284       1.35920422       0.00000000
Si      -1.35983486       1.35653346       1.35892929       0.00000000
Si       1.35440924       1.34747622      -1.39989787       0.00000000
Si      -2.57183003       0.01347183      -2.83320364       0.00000000
Si      -0.00067115      -2.71349046       2.71638081       0.00000000
Si       2.71881077      -2.71168227       0.00065297       0.00000000
Si      -2.71712054      -2.71360449      -0.00285244       0.00000000
Si       2.71452650       0.00133578       2.71648391       0.00000000
Si      -2.71575218       0.00158013       2.71614024       0.00000000
