10
Lattice="16.28999089631971 0.0 0.0 0.0 16.28999089631971 0.0 0.0 0.0 34.36671206372826" Properties=species:S:1:pos:R:3:initial_magmoms:R:1 pbc="T T T"
Si       1.33545853       1.35682668       1.37934313       0.00000000
Si       1.35546102      -1.35897696      -1.36040706       0.00000000
Si      -1.36136630       1.35514881      -1.35971972       0.00000000
Si      -1.36389125      -1.35868374       1.39425829       0.00000000
Si       2.61726162      -0.11096748       2.74906357       0.00000000
Si       2.71449663       2.71313208      -0.00058423       0.00000000
Si       2.71263957      -2.71528236      -0.00041240       0.00000000
Si       2.71316085      -0.00135207      -2.71720561       0.00000000
Si      -0.00221821       2.71340901      -2.71720561       0.00000000
Si      -2.72143469      -2.71148679      -0.00106537       0.00000000
