10
Lattice="16.28999089631971 0.0 0.0 0.0 16.28999089631971 0.0 0.0 0.0 34.36671206372826" Properties=species:S:1:pos:R:3:initial_magmoms:R:1 pbc="T T T"
Si      -1.33545853      -1.35682668      -1.37934313       0.00000000
Si       1.37903809       1.35630540      -1.37992736       0.00000000
Si       1.28180308      -1.46779416       1.36972044       0.00000000
Si      -1.40971935       1.48882455       1.42147674       0.00000000
Si       2.47944388      -0.04409703       2.87044686       0.00000000
Si      -2.69934978      -2.71551042       0.01491516       0.00000000
Si      -2.69682483      -0.00167787      -2.73906285       0.00000000
Si       2.74130564       2.70158247      -0.01611800       0.00000000
Si       2.73873181      -2.70905958      -0.02739028       0.00000000
Si       0.01929876       2.71391400      -2.73923468       0.00000000
