10
Lattice="16.28999089631971 0.0 0.0 0.0 16.28999089631971 0.0 0.0 0.0 34.36671206372826" Properties=species:S:1:pos:R:3:initial_magmoms:R:1 pbc="T T T"
Si      -1.92069593      -0.93330297      -1.00677339       0.00000000
Si       0.93185316       1.93868919      -1.08478587       0.00000000
Si       1.80359622      -1.71098757      -0.02450348       0.00000000
Si       1.60427178      -0.71711838       2.08100868       0.00000000
Si      -0.35158381      -2.01740247      -2.47993770       0.00000000
Si       2.38878189       0.69742377      -2.48189660       0.00000000
Si       3.02972823       1.29661884       1.37085454       0.00000000
Si       0.82531656      -3.49308099      -1.13640470       0.00000000
Si      -2.63675546      -2.74996377       0.63650623       0.00000000
Si       3.63301209      -0.77116860      -1.13664527       0.00000000
