10
Lattice="16.28999089631971 0.0 0.0 0.0 16.28999089631971 0.0 0.0 0.0 34.36671206372826" Properties=species:S:1:pos:R:3:initial_magmoms:R:1 pbc="T T T"
Si       1.12694546      -0.68646060      -1.96972920       0.00000000
Si       1.49053826       1.73874573       0.64059587       0.00000000
Si      -2.05081719       0.91193049      -0.89594068       0.00000000
Si       0.77190817      -1.31413059       1.96643000       0.00000000
Si      -1.72161258       3.06414900       0.05045036       0.00000000
Si       0.51614702       3.45286098      -0.54460959       0.00000000
Si       3.19854476      -1.22968323       1.11571593       0.00000000
Si      -2.54137425      -2.56609854       0.59935579       0.00000000
Si      -0.23910462      -3.46115259       1.34081802       0.00000000
Si       1.91722223      -2.90748807      -1.62025391       0.00000000
