10
Lattice="16.28999089631971 0.0 0.0 0.0 16.28999089631971 0.0 0.0 0.0 34.36671206372826" Properties=species:S:1:pos:R:3:initial_magmoms:R:1 pbc="T T T"
Si      -1.01101279      -2.14702200      -0.62561198       0.00000000
Si      -0.77190817       1.31413059      -1.96643000       0.00000000
Si       2.42663659       0.08444736      -0.85071407       0.00000000
Si      -1.25687938       0.81238230       2.18995122       0.00000000
Si       1.12977340      -3.19802022       0.02962412       0.00000000
Si       0.71863009       3.05287632      -1.32583413       0.00000000
Si      -3.31328241      -1.25196795      -1.36707420       0.00000000
Si      -3.16038447       1.80724518       1.12368901       0.00000000
Si       1.67350102      -2.58235596       2.39955391       0.00000000
Si       0.35503729       0.62766999      -3.93615920       0.00000000
