10
Lattice="16.28999089631971 0.0 0.0 0.0 16.28999089631971 0.0 0.0 0.0 34.36671206372826" Properties=species:S:1:pos:R:3:initial_magmoms:R:1 pbc="T T T"
Si       1.36226754       1.34527707       1.36380936       0.00000000
Si       1.35583299      -1.35852084      -1.35886055       0.00000000
Si      -1.35973933       1.35760860      -1.35930732       0.00000000
Si      -1.37903809      -1.35630540       1.37992736       0.00000000
Si       0.03525156       2.69371440       2.72380402       0.00000000
Si       2.71379997       2.71231025      -0.00116847       0.00000000
Si      -2.71449663      -2.71313208       0.00058423       0.00000000
Si       2.71303434       0.00037467      -2.71620897       0.00000000
Si      -0.00133578      -2.71448415      -2.71662137       0.00000000
Si       2.71632492      -2.71479366      -0.00250877       0.00000000
