10
Lattice="10.86 0.0 0.0 0.0 10.86 0.0 0.0 0.0 10.86" Properties=species:S:1:pos:R:3:initial_magmoms:R:1 pbc="T T T"
Si       1.26689502       1.40600076       1.27404090       0.00000000
Si       1.26689502      -1.30899924      -1.44095910       0.00000000
Si      -1.44810498      -1.30899924       1.27404090       0.00000000
Si      -2.24989878       2.22416058      -0.79389858       0.00000000
Si      -0.51912972       2.48211816      -2.42423436       0.00000000
Si       2.62439502       0.04850076       2.63154090       0.00000000
Si       2.62439502      -2.66649924      -0.08345910       0.00000000
Si      -0.09060498      -2.66649924       2.63154090       0.00000000
Si      -2.63048748      -0.04729530       2.74289934       0.00000000
Si       2.62439502       2.76350076      -0.08345910       0.00000000
