10
Lattice="10.86 0.0 0.0 0.0 10.86 0.0 0.0 0.0 10.86" Properties=species:S:1:pos:R:3:initial_magmoms:R:1 pbc="T T T"
Si      -1.25545944      -1.19923722       1.40746686       0.00000000
Si       1.45954056      -1.19923722      -1.30753314       0.00000000
Si       1.51727232       1.13522838       1.41083346       0.00000000
Si      -1.25545944       1.51576278      -1.30753314       0.00000000
Si       2.64467064      -2.43173862       0.14007228       0.00000000
Si      -2.61295944      -2.55673722       0.04996686       0.00000000
Si       0.10204056      -2.55673722      -2.66503314       0.00000000
Si      -2.61295944       0.15826278      -2.66503314       0.00000000
Si      -2.61295944       0.15826278       2.76496686       0.00000000
Si       2.81704056       0.15826278      -2.66503314       0.00000000
