10
Lattice="10.86 0.0 0.0 0.0 10.86 0.0 0.0 0.0 10.86" Properties=species:S:1:pos:R:3:initial_magmoms:R:1 pbc="T T T"
Si       1.35750000       1.35750000       1.35750000       0.00000000
Si      -1.35750000      -1.35750000       1.35750000       0.00000000
Si      -1.35750000       1.35750000      -1.35750000       0.00000000
Si       1.35750000      -1.35750000      -1.35750000       0.00000000
Si       0.11474676       2.60997294      -2.77176522       0.00000000
Si      -0.17236992      -2.59000140       2.80510542       0.00000000
Si       0.17511750      -2.81079606      -2.60364156       0.00000000
Si       2.71500000       2.71500000       0.00000000       0.00000000
Si      -2.71500000      -2.71500000       0.00000000       0.00000000
Si       2.71500000      -2.71500000       0.00000000       0.00000000
