10
Lattice="10.86 0.0 0.0 0.0 10.86 0.0 0.0 0.0 10.86" Properties=species:S:1:pos:R:3:initial_magmoms:R:1 pbc="T T T"
Si       1.17620316       1.51569762       1.31975064       0.00000000
Si      -1.53879684      -1.19930238       1.31975064       0.00000000
Si       1.23393492      -1.57983678      -1.39188276       0.00000000
Si      -1.53879684       1.51569762      -1.39524936       0.00000000
Si       2.41377618       0.14921640      -2.66333898       0.00000000
Si      -0.32195556      -2.68510242       2.55730194       0.00000000
Si       2.64844992       0.05317056       2.62048542       0.00000000
Si       2.53370316       2.87319762      -0.03774936       0.00000000
Si      -2.89629684      -2.55680238      -0.03774936       0.00000000
Si      -0.28333740      -2.71506516      -2.80271622       0.00000000
