10
Lattice="16.28999089631971 0.0 0.0 0.0 16.28999089631971 0.0 0.0 0.0 34.279985188174585" Properties=species:S:1:pos:R:3:initial_magmoms:R:1 pbc="T T T"
Si       2.14791795       0.41174671      -0.81881218       0.00000000
Si      -1.99932871       0.32440999      -1.21306651       0.00000000
Si       0.39600990      -2.33746839      -0.33916636       0.00000000
Si      -0.20149101       0.61884148       2.33827338       0.00000000
Si      -0.89557533      -1.51935201       3.02750714       0.00000000
Si       3.53460420      -0.71664597       0.86553583       0.00000000
Si      -0.10836108      -3.29947434       1.74396094       0.00000000
Si       2.62365111       2.70970208      -0.56630567       0.00000000
Si      -2.59567173      -1.81581372      -2.14544835       0.00000000
Si      -0.55773702      -3.00830688      -2.35657890       0.00000000
