10
Lattice="16.28999089631971 0.0 0.0 0.0 16.28999089631971 0.0 0.0 0.0 34.279985188174585" Properties=species:S:1:pos:R:3:initial_magmoms:R:1 pbc="T T T"
Si       0.19759770       2.07459666       1.01283701       0.00000000
Si      -0.88407459       0.47358288      -2.11010567       0.00000000
Si       2.10232224      -0.96725133      -0.36340233       0.00000000
Si      -1.17321394      -1.39846392       1.50321247       0.00000000
Si       2.27944341      -2.22270534       1.66525405       0.00000000
Si      -0.09686034      -1.30653945      -3.39365187       0.00000000
Si      -1.88658400       3.05427630       0.66660896       0.00000000
Si       0.61353027       1.63940931       3.27415178       0.00000000
Si       1.96804377      -1.95458823      -2.46942867       0.00000000
Si      -0.18999027       2.61177637      -2.79933943       0.00000000
