10
Lattice="16.28999089631971 0.0 0.0 0.0 16.28999089631971 0.0 0.0 0.0 34.279985188174585" Properties=species:S:1:pos:R:3:initial_magmoms:R:1 pbc="T T T"
Si      -2.10566073      -0.55058571      -0.88620667       0.00000000
Si       1.17321394       1.39846392      -1.50321247       0.00000000
Si       1.24440125      -1.90571823       0.65018884       0.00000000
Si       0.19850180       1.31051421       2.29199537       0.00000000
Si       3.45265736      -0.82424142       0.16204158       0.00000000
Si      -2.02155546       2.16417537       1.97377409       0.00000000
Si       1.37081164       3.47306058      -0.49037546       0.00000000
Si      -3.40203522      -1.31574330       0.97471764       0.00000000
Si      -2.98714521       1.49338575      -1.77416162       0.00000000
Si       3.27553618       0.43121259      -1.86661480       0.00000000
