10
Lattice="16.28999089631971 0.0 0.0 0.0 16.28999089631971 0.0 0.0 0.0 34.279985188174585" Properties=species:S:1:pos:R:3:initial_magmoms:R:1 pbc="T T T"
Si      -0.19759770      -2.07459666      -1.01283701       0.00000000
Si      -2.08418170       0.97967964      -0.34622804       0.00000000
Si       0.41593257      -0.43518735       2.26131477       0.00000000
Si       1.70271225       1.69002301      -0.55650159       0.00000000
Si       3.19129245      -0.18884997       0.44755974       0.00000000
Si      -1.59567229       2.70750293       1.23058360       0.00000000
Si       0.53382330       3.45677777       0.58855339       0.00000000
Si      -0.70416783       1.54973842       3.11368707       0.00000000
Si      -1.08167229      -1.60101378      -3.12294268       0.00000000
Si       2.38474197      -2.12250555       1.88114952       0.00000000
