10
Lattice="16.28999089631971 0.0 0.0 0.0 16.28999089631971 0.0 0.0 0.0 34.279985188174585" Properties=species:S:1:pos:R:3:initial_magmoms:R:1 pbc="T T T"
Si       0.80878221       2.13886071      -0.33686960       0.00000000
Si       1.24274781      -1.17403659      -1.62799169       0.00000000
Si       0.96604587      -0.81036234       2.01820098       0.00000000
Si      -2.31607962      -0.05536971      -0.68021813       0.00000000
Si       0.60641154      -3.22457097      -0.68056093       0.00000000
Si      -1.59189138       0.19020204      -3.10175763       0.00000000
Si       0.49031271      -3.10831771       1.76569446       0.00000000
Si       1.66306239       2.15598150      -2.46360107       0.00000000
Si      -0.55576593      -1.89339484      -3.17511684       0.00000000
Si       2.80373706       2.45575008       0.86694131       0.00000000
