10
Lattice="16.28999089631971 0.0 0.0 0.0 16.28999089631971 0.0 0.0 0.0 34.279985188174585" Properties=species:S:1:pos:R:3:initial_magmoms:R:1 pbc="T T T"
Si      -0.93623028      -2.16735029      -0.03870212       0.00000000
Si      -1.59818258       1.44355464       1.07255278       0.00000000
Si       2.31607962       0.05536971       0.68021813       0.00000000
Si       0.72418824       0.24557175      -2.42153951       0.00000000
Si       1.76031369      -1.83802514      -2.49489872       0.00000000
Si       0.78019326      -3.42278054      -1.02740601       0.00000000
Si      -3.11545340       1.95892137      -0.73890549       0.00000000
Si      -0.65554544       3.58922457       0.97166672       0.00000000
Si       3.12486183       2.19423042       0.34334852       0.00000000
Si       3.55882743      -1.11866688      -0.94777356       0.00000000
