10
Lattice="16.28999089631971 0.0 0.0 0.0 16.28999089631971 0.0 0.0 0.0 34.279985188174585" Properties=species:S:1:pos:R:3:initial_magmoms:R:1 pbc="T T T"
Si       0.85428018       0.01712079      -2.12673147       0.00000000
Si      -0.80878221      -2.13886071       0.33686960       0.00000000
Si       1.99495485       0.31688937       1.20381091       0.00000000
Si      -1.45254672       1.65540609       0.91236232       0.00000000
Si       2.35980198       2.28977127      -0.03667960       0.00000000
Si       1.34951247       2.24490861      -2.10832311       0.00000000
Si       0.43396560      -3.31289730      -1.29112208       0.00000000
Si      -0.84527181       1.51441614       3.18893168       0.00000000
Si       0.15726366      -2.94922305       2.35507058       0.00000000
Si       1.45179738       0.93533922       3.40743243       0.00000000
