10
Lattice="16.28999089631971 0.0 0.0 0.0 16.28999089631971 0.0 0.0 0.0 34.279985188174585" Properties=species:S:1:pos:R:3:initial_magmoms:R:1 pbc="T T T"
Si      -1.27853694      -0.69527349      -1.72634102       0.00000000
Si       0.49523229       2.22778782       0.01840836       0.00000000
Si      -0.85428018      -0.01712079       2.12673147       0.00000000
Si       1.95493032      -0.97679727      -0.76989462       0.00000000
Si       0.85240683      -1.22311836      -2.85014240       0.00000000
Si       1.50552180       2.27265048       2.09005186       0.00000000
Si       3.26363634       0.73795329       0.79032550       0.00000000
Si      -0.42031458      -3.33001809       0.83560939       0.00000000
Si       1.14067467       0.29976858       3.33054238       0.00000000
Si       1.76736726      -3.11269320       0.09807509       0.00000000
