10
Lattice="16.28999089631971 0.0 0.0 0.0 16.28999089631971 0.0 0.0 0.0 34.279985188174585" Properties=species:S:1:pos:R:3:initial_magmoms:R:1 pbc="T T T"
Si       1.03612545      -2.08359688      -0.07335921       0.00000000
Si      -1.43616875       0.57555828      -1.82232503       0.00000000
Si      -0.72418824      -0.24557175       2.42153951       0.00000000
Si       1.97641683       1.27050597      -1.08818446       0.00000000
Si      -2.73372983       2.08292085      -0.40207017       0.00000000
Si       2.83463919      -1.36423863       1.47376595       0.00000000
Si       1.59189138      -0.19020204       3.10175763       0.00000000
Si       1.69652205      -2.39998941      -2.25089365       0.00000000
Si      -1.66041852      -2.41292204       2.38283738       0.00000000
Si      -1.23861015       3.51875403       0.83283271       0.00000000
