10
Lattice="16.28999089631971 0.0 0.0 0.0 16.28999089631971 0.0 0.0 0.0 34.279985188174585" Properties=species:S:1:pos:R:3:initial_magmoms:R:1 pbc="T T T"
Si       0.40462405       0.97293442      -2.09036038       0.00000000
Si       1.99932871      -0.32440999       1.21306651       0.00000000
Si      -1.58651472       1.32720120       1.19788047       0.00000000
Si      -0.59634302      -2.14022371      -0.93238184       0.00000000
Si       2.39533862      -2.66187838       0.87390015       0.00000000
Si      -3.62709786       0.75984819      -0.04346705       0.00000000
Si      -1.63474941       0.62676378      -3.27590006       0.00000000
Si       2.12104759      -0.28249582      -3.07906427       0.00000000
Si       1.44159170      -3.33271687      -1.14351238       0.00000000
Si      -2.14693959      -3.24626584       0.44855386       0.00000000
