10
Lattice="16.28999089631971 0.0 0.0 0.0 16.28999089631971 0.0 0.0 0.0 34.279985188174585" Properties=species:S:1:pos:R:3:initial_magmoms:R:1 pbc="T T T"
Si       0.40303089      -1.81182267       1.44723322       0.00000000
Si       2.29791627       0.68450580      -0.04929465       0.00000000
Si      -1.74348612       1.60648722       0.40584097       0.00000000
Si      -0.62193591      -1.23219189      -1.97469965       0.00000000
Si       2.87619498      -0.04978224      -2.25401313       0.00000000
Si       1.47175263      -1.86533532      -2.78963819       0.00000000
Si       0.95519673      -0.65502090       3.57629573       0.00000000
Si      -1.92060729       2.86194123      -1.62281541       0.00000000
Si      -1.54471554      -3.28307031      -1.31467245       0.00000000
Si      -1.23561279      -3.50463060       1.05421297       0.00000000
