10
Lattice="16.28999089631971 0.0 0.0 0.0 16.28999089631971 0.0 0.0 0.0 34.279985188174585" Properties=species:S:1:pos:R:3:initial_magmoms:R:1 pbc="T T T"
Si       0.24063588       2.29897512      -0.29460236       0.00000000
Si       1.67358573      -0.80782110       1.45953975       0.00000000
Si      -0.49738257      -0.60564591      -2.23334228       0.00000000
Si      -1.88470413      -1.10200221       0.95188716       0.00000000
Si       0.75080610      -2.85869952       2.11956695       0.00000000
Si      -1.14510555      -3.35505582       0.86786687       0.00000000
Si      -1.82426823       2.94702390      -1.21882555       0.00000000
Si       0.37491435       3.28631202       1.81142399       0.00000000
Si      -3.90088648      -0.51577398      -0.11991146       0.00000000
Si      -0.09479151      -2.87015139      -2.69523106       0.00000000
