10
Lattice="16.28999089631971 0.0 0.0 0.0 16.28999089631971 0.0 0.0 0.0 34.279985188174585" Properties=species:S:1:pos:R:3:initial_magmoms:R:1 pbc="T T T"
Si       2.09368854      -0.63314343      -0.81493854       0.00000000
Si      -0.92277963      -2.05087842       0.66002720       0.00000000
Si      -1.67358573       0.80782110      -1.45953975       0.00000000
Si       0.62193591       1.23219189       1.97469965       0.00000000
Si      -3.55828986      -0.29418111      -0.50765258       0.00000000
Si       1.02496680      -0.57963078       3.42193287       0.00000000
Si       2.42949060      -2.64662001       0.44162930       0.00000000
Si       3.49813089       1.18240965      -0.27931348       0.00000000
Si       0.44154045      -3.76261533      -0.13948534       0.00000000
Si      -0.61367688      -2.27243871       3.02891262       0.00000000
