10
Lattice="16.28999089631971 0.0 0.0 0.0 16.28999089631971 0.0 0.0 0.0 34.279985188174585" Properties=species:S:1:pos:R:3:initial_magmoms:R:1 pbc="T T T"
Si       1.31843115       1.22176629      -1.48410963       0.00000000
Si       1.29440340      -1.37026593       1.43603052       0.00000000
Si      -1.08413208      -1.58030919      -1.43262107       0.00000000
Si      -1.40107032       1.32988302       1.41821177       0.00000000
Si       2.26621593      -0.73616139      -2.60657410       0.00000000
Si       2.73277782       2.64673404      -0.14237857       0.00000000
Si       2.61834057      -2.81075805       0.15477422       0.00000000
Si       2.66409918      -0.02373453       2.79278167       0.00000000
Si      -2.73711096       2.72732067       0.03375895       0.00000000
Si      -0.05277960       2.68727985       2.78938795       0.00000000
