10
Lattice="16.28999089631971 0.0 0.0 0.0 16.28999089631971 0.0 0.0 0.0 34.279985188174585" Properties=species:S:1:pos:R:3:initial_magmoms:R:1 pbc="T T T"
Si      -0.24042411       1.68826369      -1.62908865       0.00000000
Si      -1.62191385      -1.69855830       0.22535675       0.00000000
Si      -0.33534594       1.15443972       2.04915582       0.00000000
Si       2.19714633      -0.74013615      -0.55221659       0.00000000
Si       2.89419543      -1.54693098       1.53019083       0.00000000
Si       1.75990644       2.91232850      -1.29955496       0.00000000
Si      -1.82392614       3.03331270       1.04509449       0.00000000
Si      -1.75619232      -2.68589520      -1.88066960       0.00000000
Si      -0.17813115       0.54498195      -3.68331791       0.00000000
Si      -1.14189642      -0.77921586       3.48274560       0.00000000
