10
Lattice="16.28999089631971 0.0 0.0 0.0 16.28999089631971 0.0 0.0 0.0 34.279985188174585" Properties=species:S:1:pos:R:3:initial_magmoms:R:1 pbc="T T T"
Si      -1.96094133       0.80500130      -0.96611336       0.00000000
Si      -0.52973451      -2.28399714       0.08638561       0.00000000
Si      -0.04887000       0.94343372       2.16207415       0.00000000
Si       2.00217132       0.16462511      -1.38731178       0.00000000
Si       1.33367859      -1.73337885      -2.67329186       0.00000000
Si       1.29287214      -3.26291211      -0.88312147       0.00000000
Si      -0.51153858       3.20574005       1.74855446       0.00000000
Si       1.97798067       2.80220417      -1.35868797       0.00000000
Si       3.67271082       0.20249936       0.45311310       0.00000000
Si      -2.46148416      -0.61300573      -2.83214540       0.00000000
