10
Lattice="16.28999089631971 0.0 0.0 0.0 16.28999089631971 0.0 0.0 0.0 34.279985188174585" Properties=species:S:1:pos:R:3:initial_magmoms:R:1 pbc="T T T"
Si      -0.91004085      -1.89827370      -1.08725890       0.00000000
Si      -1.85960124       1.41133302       0.42346089       0.00000000
Si       0.80167977       0.30929823       2.24582020       0.00000000
Si       1.24822125       0.64698993      -1.95646269       0.00000000
Si      -1.90464309      -0.94791510      -2.94252701       0.00000000
Si      -0.49844142       0.87439833      -3.53615385       0.00000000
Si       0.94270230      -3.20590458      -1.54071480       0.00000000
Si      -1.61833005       3.30615324      -0.95788616       0.00000000
Si       2.34592290       2.70295083      -1.51682163       0.00000000
Si      -0.04227255       2.31658461       3.31000866       0.00000000
