10
Lattice="16.28999089631971 0.0 0.0 0.0 16.28999089631971 0.0 0.0 0.0 34.279985188174585" Properties=species:S:1:pos:R:3:initial_magmoms:R:1 pbc="T T T"
Si       0.92642859       1.61552817       1.42211386       0.00000000
Si      -1.76013450      -1.14530103       1.17160930       0.00000000
Si      -0.92919789       1.75922226      -1.45071303       0.00000000
Si       1.89739404      -1.79059680      -0.06552661       0.00000000
Si       2.33908110       0.33303276       2.71495680       0.00000000
Si      -0.38726217      -2.39028057       2.68348433       0.00000000
Si       2.32650522       2.91053430       0.02730505       0.00000000
Si      -1.48136373       0.60242049      -3.57977554       0.00000000
Si       0.57430395       3.69012483      -1.33923445       0.00000000
Si      -2.77604406       2.84597703      -0.16528142       0.00000000
