10
Lattice="16.28999089631971 0.0 0.0 0.0 16.28999089631971 0.0 0.0 0.0 34.279985188174585" Properties=species:S:1:pos:R:3:initial_magmoms:R:1 pbc="T T T"
Si       1.35550719      -1.35422028       1.35772813       0.00000000
Si      -1.35589815       1.36031274       1.35800237       0.00000000
Si       1.36910934       1.36438524      -1.34437607       0.00000000
Si      -1.35723393      -1.35892809      -1.37584854       0.00000000
Si      -0.04354317       2.64688065      -2.63721901       0.00000000
Si      -2.71420722      -2.71145421       0.00003428       0.00000000
Si      -0.00058644      -2.71225242       2.71497634       0.00000000
Si       2.71451673      -2.71277370      -0.00377080       0.00000000
Si       2.71445157       0.00263898       2.71470210       0.00000000
Si       2.71461447       2.71508688      -0.00030852       0.00000000
