10
Lattice="16.28999089631971 0.0 0.0 0.0 16.28999089631971 0.0 0.0 0.0 34.279985188174585" Properties=species:S:1:pos:R:3:initial_magmoms:R:1 pbc="T T T"
Si       1.35632169       1.35630540       1.35858513       0.00000000
Si      -1.35738054       1.35754344      -1.35724821       0.00000000
Si       1.35746199      -1.35772263      -1.35728249       0.00000000
Si      -1.35855342      -1.35822762       1.35800237       0.00000000
Si      -2.71394658      -0.00174303      -2.71387938       0.00000000
Si       2.71355562       0.00030951      -2.71453070       0.00000000
Si      -0.00184077      -2.71474479      -2.71384510       0.00000000
Si       0.00215028       2.71484253      -2.71425646       0.00000000
Si      -2.71472850       2.71461447       0.00006856       0.00000000
Si       2.71542897       2.71417464       0.00030852       0.00000000
