10
Lattice="16.28999089631971 0.0 0.0 0.0 16.28999089631971 0.0 0.0 0.0 34.279985188174585" Properties=species:S:1:pos:R:3:initial_magmoms:R:1 pbc="T T T"
Si      -1.35550719       1.35422028      -1.35772813       0.00000000
Si      -1.35609363      -1.35803214       1.35724821       0.00000000
Si       1.35894438       1.35685926       1.35697397       0.00000000
Si       1.35900954      -1.35855342      -1.36149893       0.00000000
Si       0.01360215       2.71860552      -2.70210420       0.00000000
Si      -2.71140534       2.71453302       0.00027424       0.00000000
Si      -2.71355562      -0.00030951       2.71453070       0.00000000
Si       0.00187335       2.71386513       2.71483922       0.00000000
Si       0.00177561      -2.71520091       2.71473638       0.00000000
Si      -2.71539639      -2.71505430       0.00068560       0.00000000
