10
Lattice="16.28999089631971 0.0 0.0 0.0 16.28999089631971 0.0 0.0 0.0 34.279985188174585" Properties=species:S:1:pos:R:3:initial_magmoms:R:1 pbc="T T T"
Si       1.48980195       1.24755336       1.23665116       0.00000000
Si       0.46266858      -2.26230633       0.41351969       0.00000000
Si      -2.07609534       1.01172303       0.51779947       0.00000000
Si       0.04686633       1.44990774      -2.02241742       0.00000000
Si      -1.49322285      -2.59270011       1.72870634       0.00000000
Si      -1.71124821       2.98460493      -0.72269105       0.00000000
Si       0.51153858      -3.20574005      -1.74855446       0.00000000
Si       1.80371025       3.24692280       0.09224749       0.00000000
Si      -1.26183969      -0.26484282      -3.58263753       0.00000000
Si       3.72399174       0.62460747       0.88654947       0.00000000
