10
Lattice="16.28999089631971 0.0 0.0 0.0 16.28999089631971 0.0 0.0 0.0 34.279985188174585" Properties=species:S:1:pos:R:3:initial_magmoms:R:1 pbc="T T T"
Si       1.40646231      -1.32711372       1.33478110       0.00000000
Si      -1.32569649      -1.44541170      -1.31064455       0.00000000
Si      -1.33869591       1.40396994       1.34814344       0.00000000
Si       1.10951190       1.60318035      -1.45753578       0.00000000
Si      -2.61133587       2.71707426      -0.21298852       0.00000000
Si       2.65966830       2.71200807       0.02664585       0.00000000
Si       2.78125686      -2.58465285      -0.34503510       0.00000000
Si       0.03238452      -2.67221160       2.72107476       0.00000000
Si      -2.68001451       0.04660569       2.72217172       0.00000000
Si      -2.72577312      -2.74041783       0.08416427       0.00000000
