10
Lattice="16.28999089631971 0.0 0.0 0.0 16.28999089631971 0.0 0.0 0.0 34.279985188174585" Properties=species:S:1:pos:R:3:initial_magmoms:R:1 pbc="T T T"
Si      -1.18572466      -1.48950873      -1.39907466       0.00000000
Si       1.30583246      -1.38515499       1.61355295       0.00000000
Si       1.44224492       1.31717682      -1.56852072       0.00000000
Si      -1.39977745       1.33125138       1.60009119       0.00000000
Si       2.79402170       2.58580944       0.06520057       0.00000000
Si       2.58560744      -2.87668368       0.20342783       0.00000000
Si      -2.72199125       2.76674247      -0.05292147       0.00000000
Si      -2.83382210      -2.70239697       0.05706250       0.00000000
Si       2.67743417      -0.03383433       3.00828635       0.00000000
Si      -0.03836784       2.67906969       3.00842347       0.00000000
