10
Lattice="16.28999089631971 0.0 0.0 0.0 16.28999089631971 0.0 0.0 0.0 34.279985188174585" Properties=species:S:1:pos:R:3:initial_magmoms:R:1 pbc="T T T"
Si      -1.76744871      -0.87195483       1.27192528       0.00000000
Si      -1.33921719       1.30189680      -1.44418230       0.00000000
Si       1.36588392      -1.42754157      -1.42361430       0.00000000
Si       1.38396582       1.45024983       1.59326604       0.00000000
Si      -1.30781007       1.12953231       3.15866244       0.00000000
Si       2.34326763      -0.38314080       2.74671963       0.00000000
Si       0.02381598      -0.82694556       3.63330338       0.00000000
Si      -2.64821643      -2.69081478      -0.10105745       0.00000000
Si      -2.68879482       2.71953405      -0.04998025       0.00000000
Si       0.01523115       2.65235409      -2.81322284       0.00000000
