10
Lattice="16.28999089631971 0.0 0.0 0.0 16.28999089631971 0.0 0.0 0.0 34.279985188174585" Properties=species:S:1:pos:R:3:initial_magmoms:R:1 pbc="T T T"
Si      -1.36174626      -1.25314083       1.44239974       0.00000000
Si      -1.38166893       1.29187845      -1.39783574       0.00000000
Si       1.34957763      -1.41763725      -1.39420206       0.00000000
Si       0.97184511       1.75989015       1.31762053       0.00000000
Si      -0.87324174       3.42090000       1.37294845       0.00000000
Si      -2.76410349       2.61764010       0.05416241       0.00000000
Si       2.68879482      -2.71953405       0.04998025       0.00000000
Si      -0.00998577       2.64903093      -2.76351683       0.00000000
Si       2.73000852       2.68387524      -0.02958364       0.00000000
Si       1.38098475      -1.59000174       3.20864269       0.00000000
