10
Lattice="16.28999089631971 0.0 0.0 0.0 16.28999089631971 0.0 0.0 0.0 34.279985188174585" Properties=species:S:1:pos:R:3:initial_magmoms:R:1 pbc="T T T"
Si       1.35659862       1.35632169       1.35676829       0.00000000
Si      -1.35662794      -1.35757602       1.35700825       0.00000000
Si       1.35728280      -1.35786924      -1.35779669       0.00000000
Si      -1.35774544       1.35754344      -1.35813949       0.00000000
Si      -2.71470311      -0.00045612      -2.71494206       0.00000000
Si      -0.00071676       2.71461447      -2.71511346       0.00000000
Si       2.71497285       2.71479366      -0.00037708       0.00000000
Si       2.71458189      -2.71523349      -0.00047992       0.00000000
Si       2.71371852       0.00252495       2.71614186       0.00000000
Si      -2.71510779       2.71492398       0.00010284       0.00000000
