10
Lattice="16.28999089631971 0.0 0.0 0.0 16.28999089631971 0.0 0.0 0.0 34.279985188174585" Properties=species:S:1:pos:R:3:initial_magmoms:R:1 pbc="T T T"
Si      -1.09918404      -0.20942424      -2.03410690       0.00000000
Si       2.15718696       0.85892283      -0.47635494       0.00000000
Si      -0.91671975       1.86199587       1.14759171       0.00000000
Si       0.06102234      -2.00814975       1.29396732       0.00000000
Si      -0.21967065       1.05520104       3.22999913       0.00000000
Si       1.85020191       2.02377186      -2.50919348       0.00000000
Si      -3.23574786       0.76323537      -1.71883370       0.00000000
Si      -0.51725637      -1.27386171       3.49868580       0.00000000
Si      -0.87219918      -2.42478279      -2.78453047       0.00000000
Si       0.19332972       3.80467611       0.28017048       0.00000000
