10
Lattice="16.28999089631971 0.0 0.0 0.0 16.28999089631971 0.0 0.0 0.0 34.279985188174585" Properties=species:S:1:pos:R:3:initial_magmoms:R:1 pbc="T T T"
Si       1.86360858      -1.42403922       0.03592544       0.00000000
Si      -1.40444235      -1.81555308      -0.53562507       0.00000000
Si      -0.06102234       2.00814975      -1.29396732       0.00000000
Si      -0.57827871       0.73428804       2.20471848       0.00000000
Si       1.46329812      -2.30215167       2.23509056       0.00000000
Si       3.53882331       0.18728613       0.20571431       0.00000000
Si      -0.28069299       3.06335079       1.93603181       0.00000000
Si      -2.87619498       0.04978224       2.25401313       0.00000000
Si      -3.49813089      -1.18240965       0.27931348       0.00000000
Si       1.34643366      -0.30154419       3.44167816       0.00000000
