10
Lattice="16.28999089631971 0.0 0.0 0.0 16.28999089631971 0.0 0.0 0.0 34.279985188174585" Properties=species:S:1:pos:R:3:initial_magmoms:R:1 pbc="T T T"
Si      -1.54728936       1.70978441       0.12008286       0.00000000
Si       2.01289014       0.37081010       1.07128442       0.00000000
Si       0.50425695       0.16363305      -2.28675053       0.00000000
Si      -1.11004947      -1.94268024       0.86742123       0.00000000
Si       2.83957506      -1.79620056       1.13343406       0.00000000
Si      -3.54761991       0.48571960      -0.20945083       0.00000000
Si       1.96385724      -2.94575328      -0.75652542       0.00000000
Si      -1.58900805       0.14170671      -3.31580198       0.00000000
Si       1.65687219      -1.78090425      -2.78936395       0.00000000
Si      -3.30719580      -1.20254409       1.41963782       0.00000000
