10
Lattice="16.28999089631971 0.0 0.0 0.0 16.28999089631971 0.0 0.0 0.0 34.279985188174585" Properties=species:S:1:pos:R:3:initial_magmoms:R:1 pbc="T T T"
Si      -2.11053240       0.84256767       0.73328357       0.00000000
Si       1.23155236       1.21267647       1.73717350       0.00000000
Si       0.73070817       0.83439009      -2.22761752       0.00000000
Si      -0.59847831      -2.42224807      -0.05063157       0.00000000
Si      -3.04119639       1.51483968      -1.38426086       0.00000000
Si       0.18205704       3.42205659       1.59679688       0.00000000
Si      -0.85028913      -3.13714123       2.26093769       0.00000000
Si       1.10228307       0.07084521       3.85104997       0.00000000
Si      -1.92606444       2.67351480       2.39229866       0.00000000
Si       0.98803641      -3.74944926      -1.24851204       0.00000000
