10
Lattice="16.28999089631971 0.0 0.0 0.0 16.28999089631971 0.0 0.0 0.0 34.279985188174585" Properties=species:S:1:pos:R:3:initial_magmoms:R:1 pbc="T T T"
Si      -2.12789754      -0.85672042      -0.31990100       0.00000000
Si      -0.14388957       1.58801762      -1.72318726       0.00000000
Si       1.57566654      -1.76865810      -0.35280980       0.00000000
Si       0.82906326       0.95422259       2.07966502       0.00000000
Si       2.11467006       2.63002376       0.76999746       0.00000000
Si      -1.87326855      -1.28552845      -2.62718525       0.00000000
Si      -1.82237859       2.99617409      -0.73564889       0.00000000
Si       3.48581632      -0.53591331      -1.02346381       0.00000000
Si      -2.27931309      -2.62665240       1.20031435       0.00000000
Si      -0.49472730       0.31573604      -3.68859703       0.00000000
