10
Lattice="16.28999089631971 0.0 0.0 0.0 16.28999089631971 0.0 0.0 0.0 34.279985188174585" Properties=species:S:1:pos:R:3:initial_magmoms:R:1 pbc="T T T"
Si      -2.02225689       1.19845530      -0.27403435       0.00000000
Si       2.10812148       0.74854179      -0.79550178       0.00000000
Si      -0.18446796      -1.83094713      -1.65901509       0.00000000
Si       0.53240607       0.08307900       2.44440427       0.00000000
Si       3.15761680      -1.46083833      -0.65512516       0.00000000
Si      -1.35957969       3.02003568      -1.63974973       0.00000000
Si       1.20399390      -2.12029011       2.83461356       0.00000000
Si      -2.62532898       2.24666793       1.75119402       0.00000000
Si       2.72845024       2.78034462       0.41513085       0.00000000
Si      -1.85059287      -3.39929946      -0.97314076       0.00000000
