10
Lattice="16.28999089631971 0.0 0.0 0.0 16.28999089631971 0.0 0.0 0.0 34.279985188174585" Properties=species:S:1:pos:R:3:initial_magmoms:R:1 pbc="T T T"
Si      -0.54876123       1.71970272      -1.40242926       0.00000000
Si      -1.04635557       0.67285845       1.97182013       0.00000000
Si       2.35852226       0.33930441       0.25799131       0.00000000
Si      -1.34886087      -1.77347601      -1.08071142       0.00000000
Si       2.14947269      -1.81604178       1.31799761       0.00000000
Si       0.84718330       0.92378961      -3.10998483       0.00000000
Si       2.86336565       0.33756138      -2.03818622       0.00000000
Si      -1.94706225      -1.32662502       2.81946180       0.00000000
Si      -3.07641537      -1.95453936       0.57881787       0.00000000
Si      -1.55458728       2.97891972       1.66268305       0.00000000
