10
Lattice="16.28999089631971 0.0 0.0 0.0 16.28999089631971 0.0 0.0 0.0 34.279985188174585" Properties=species:S:1:pos:R:3:initial_magmoms:R:1 pbc="T T T"
Si       1.64777164       1.19933496      -1.11323114       0.00000000
Si      -1.27171143       1.41920710       1.33575122       0.00000000
Si       1.44258343      -1.31533605       1.33342361       0.00000000
Si      -1.55015640      -1.10882772      -1.48418162       0.00000000
Si      -2.60118720       2.61803662      -0.23638463       0.00000000
Si      -2.62905939       0.04935870       2.69463459       0.00000000
Si       0.09031176      -2.66792733       2.69285203       0.00000000
Si      -2.65966830      -2.71200807      -0.02664585       0.00000000
Si      -0.09340686      -2.09381886      -3.20750600       0.00000000
Si      -3.36688236       0.75458538      -1.67889205       0.00000000
