10
Lattice="16.28999089631971 0.0 0.0 0.0 16.28999089631971 0.0 0.0 0.0 34.279985188174585" Properties=species:S:1:pos:R:3:initial_magmoms:R:1 pbc="T T T"
Si      -2.13882813      -0.57775743       0.81809230       0.00000000
Si       0.30604023       2.37174322      -0.28181592       0.00000000
Si       1.34444662      -0.39524427       2.06170230       0.00000000
Si      -1.23367428      -1.12932054      -2.11960123       0.00000000
Si      -1.93254786       0.09542682       3.06871171       0.00000000
Si       2.34541369       2.71791387       0.90372375       0.00000000
Si      -0.20614995      -1.50128640       3.44263800       0.00000000
Si      -2.30539338      -2.93176017       0.77411106       0.00000000
Si      -1.62818550       3.38142023       0.67634449       0.00000000
Si       1.94078964       1.74497944       2.99408414       0.00000000
