10
Lattice="16.28999089631971 0.0 0.0 0.0 16.28999089631971 0.0 0.0 0.0 34.279985188174585" Properties=species:S:1:pos:R:3:initial_magmoms:R:1 pbc="T T T"
Si       0.96943419       2.03501196      -0.96652472       0.00000000
Si      -1.45674954       0.98499114       1.72332438       0.00000000
Si      -0.41104557      -1.44490671      -1.96558117       0.00000000
Si       1.64504958      -1.60409259       1.34884961       0.00000000
Si       3.18949145       1.18135080      -0.64830344       0.00000000
Si       0.09340686       2.09381886       3.20750600       0.00000000
Si       0.88532892      -0.67974912      -3.82650549       0.00000000
Si       0.09718614      -3.75096798      -1.65644409       0.00000000
Si      -2.56626144      -0.61818921       3.18086015       0.00000000
Si       2.99098965      -0.12916341      -2.94029881       0.00000000
