10
Lattice="16.28999089631971 0.0 0.0 0.0 16.28999089631971 0.0 0.0 0.0 34.279985188174585" Properties=species:S:1:pos:R:3:initial_magmoms:R:1 pbc="T T T"
Si       1.36140961       1.34781831       1.40833227       0.00000000
Si      -1.35529879      -1.36428750       1.40778379       0.00000000
Si       1.39977745      -1.33125138      -1.60009119       0.00000000
Si      -1.32221380       1.43549109      -1.65301266       0.00000000
Si      -2.69700835       2.69303022       0.02680354       0.00000000
Si       2.70560991      -2.71640637       0.01346176       0.00000000
Si       2.73068022       2.69177589       0.02539120       0.00000000
Si      -2.71631200      -2.71759554       0.03461938       0.00000000
Si       0.00032880       2.70819621       2.77065393       0.00000000
Si      -2.71471558      -0.00612504       2.77109957       0.00000000
