10
Lattice="16.28999089631971 0.0 0.0 0.0 16.28999089631971 0.0 0.0 0.0 34.279985188174585" Properties=species:S:1:pos:R:3:initial_magmoms:R:1 pbc="T T T"
Si       1.35694071      -1.35449558      -1.35416301       0.00000000
Si      -1.35877985      -1.35541271       1.35769385       0.00000000
Si       1.35645201       1.35907470       1.35759101       0.00000000
Si      -1.36159639       1.36145304      -1.36074477       0.00000000
Si       2.70091458       0.00614133      -2.71295382       0.00000000
Si       2.71306692      -2.71207456       0.00147404       0.00000000
Si      -0.00115659      -2.71320555       2.71442786       0.00000000
Si       0.00441459      -2.72883950      -2.69880647       0.00000000
Si       2.71375110       0.00171045       2.71490778       0.00000000
Si      -2.71567349      -2.71384330       0.00092556       0.00000000
