10
Lattice="16.28999089631971 0.0 0.0 0.0 16.28999089631971 0.0 0.0 0.0 34.279985188174585" Properties=species:S:1:pos:R:3:initial_magmoms:R:1 pbc="T T T"
Si       1.47733684      -1.37099898       1.25457960       0.00000000
Si       1.26928096       1.17680589      -1.63512193       0.00000000
Si      -1.27793160      -1.46908107      -1.45144966       0.00000000
Si      -0.85957280       1.83067020       1.50780599       0.00000000
Si      -2.50660161       2.61612513      -0.05378533       0.00000000
Si       2.29323778       2.87482662      -0.30231536       0.00000000
Si       0.09630322      -2.58067809       2.74918779       0.00000000
Si       2.66608330      -2.83636593      -0.22518535       0.00000000
Si      -2.79540702      -2.82724353      -0.17774182       0.00000000
Si      -0.01341319       2.64437199      -3.02709578       0.00000000
