10
Lattice="16.28999089631971 0.0 0.0 0.0 16.28999089631971 0.0 0.0 0.0 34.279985188174585" Properties=species:S:1:pos:R:3:initial_magmoms:R:1 pbc="T T T"
Si      -1.55059657      -1.10604213       1.38093570       0.00000000
Si       2.03793471      -1.19249316      -0.21113055       0.00000000
Si       0.59634302       2.14022371       0.93238184       0.00000000
Si      -1.34444662       0.39524427      -2.06170230       0.00000000
Si      -3.27699448       0.49067109       1.00700941       0.00000000
Si       1.00096707       3.11315814      -1.15797855       0.00000000
Si       2.99168163      -0.52165467       1.80628199       0.00000000
Si      -1.92612994      -3.11920920       0.16337850       0.00000000
Si      -3.48327475      -0.18251316      -1.24361000       0.00000000
Si      -0.15403858      -3.50911035      -1.35262041       0.00000000
