10
Lattice="16.28999089631971 0.0 0.0 0.0 16.28999089631971 0.0 0.0 0.0 34.529650657227435" Properties=species:S:1:pos:R:3:initial_magmoms:R:1 pbc="T T T"
Si      -1.48232484       1.61584633       0.88023035       0.00000000
Si      -1.54267929      -1.29753108      -1.27583678       0.00000000
Si       1.53942129      -1.06258041       1.48415427       0.00000000
Si       1.36950030       1.19724984      -1.56077561       0.00000000
Si      -1.38127797      -0.16338870      -3.34409495       0.00000000
Si       0.90111393       0.06449211      -3.58141737       0.00000000
Si       3.59419302      -0.05435973       1.01631178       0.00000000
Si       3.52124640       0.33919038      -1.25674187       0.00000000
Si      -3.68058608      -0.64194003      -0.52492004       0.00000000
Si      -2.16359870       2.95488938      -0.97480711       0.00000000
