10
Lattice="16.28999089631971 0.0 0.0 0.0 16.28999089631971 0.0 0.0 0.0 34.529650657227435" Properties=species:S:1:pos:R:3:initial_magmoms:R:1 pbc="T T T"
Si       1.43480691       1.31030244       1.43195029       0.00000000
Si      -1.30075650      -1.36498797       1.50927258       0.00000000
Si      -1.46001731       1.63634679      -1.20684649       0.00000000
Si       0.21957291      -1.60166538      -1.92250843       0.00000000
Si      -1.05075387       0.07688880      -3.16512767       0.00000000
Si       2.48653818      -2.81971755      -0.03863870       0.00000000
Si      -1.29510224      -3.32234550      -1.27697625       0.00000000
Si       0.01637145       2.60440410       2.91485804       0.00000000
Si      -2.84459957      -2.70746316       0.29216939       0.00000000
Si       2.46270591       3.10984964       0.13041856       0.00000000
