10
Lattice="16.28999089631971 0.0 0.0 0.0 16.28999089631971 0.0 0.0 0.0 34.529650657227435" Properties=species:S:1:pos:R:3:initial_magmoms:R:1 pbc="T T T"
Si       1.33802802      -1.63928943       1.04010272       0.00000000
Si      -1.35757602      -1.34730747      -1.40936301       0.00000000
Si       1.43014797       1.35757276      -1.44223525       0.00000000
Si      -1.79993097      -0.31972546       1.72793374       0.00000000
Si      -0.61357914       3.04122571       1.20632855       0.00000000
Si      -3.12965598       1.49354539       0.52367697       0.00000000
Si      -2.32054308      -3.12479082      -0.03135294       0.00000000
Si       0.06911847      -2.66889888      -2.83747563       0.00000000
Si       3.25669680       2.14995094      -0.10141364       0.00000000
Si      -2.66663553       0.03179482      -2.85083861       0.00000000
