10
Lattice="16.28999089631971 0.0 0.0 0.0 16.28999089631971 0.0 0.0 0.0 34.529650657227435" Properties=species:S:1:pos:R:3:initial_magmoms:R:1 pbc="T T T"
Si       0.16158051      -1.44762714       1.86049315       0.00000000
Si       1.07688303       1.86867477       1.02021363       0.00000000
Si       1.04174550      -0.50767785      -2.10230443       0.00000000
Si      -2.82853044       0.38359692      -0.79456224       0.00000000
Si       2.25165267      -0.77633253       2.69780311       0.00000000
Si      -0.20652462       3.70874430       0.13325000       0.00000000
Si      -2.44403757       2.80258047       0.35817627       0.00000000
Si       0.13222593      -3.61525925       0.99749311       0.00000000
Si      -0.78480333      -1.30005603      -3.44312604       0.00000000
Si       3.18603078       2.39829525       0.09316105       0.00000000
