10
Lattice="16.28999089631971 0.0 0.0 0.0 16.28999089631971 0.0 0.0 0.0 34.529650657227435" Properties=species:S:1:pos:R:3:initial_magmoms:R:1 pbc="T T T"
Si       1.91088216      -1.21553211       0.51735804       0.00000000
Si      -2.03509341      -0.43073366       1.18043130       0.00000000
Si       0.62907093       2.30088105       0.26397933       0.00000000
Si      -0.08855244       0.25935309      -2.68789310       0.00000000
Si      -2.19191724       1.27335672      -1.92561610       0.00000000
Si      -2.72916144       1.61956809       0.40734652       0.00000000
Si       2.20773483       1.07908218      -2.27246664       0.00000000
Si       3.48897591       0.18254574      -0.51991324       0.00000000
Si      -3.13579242      -1.69593414      -0.47205512       0.00000000
Si      -0.28396728      -2.11453064      -2.91306108       0.00000000
