10
Lattice="16.28999089631971 0.0 0.0 0.0 16.28999089631971 0.0 0.0 0.0 34.529650657227435" Properties=species:S:1:pos:R:3:initial_magmoms:R:1 pbc="T T T"
Si       1.79993097       0.31972546      -1.72793374       0.00000000
Si      -1.32972501       1.81327085      -1.20425677       0.00000000
Si       0.74963322      -2.71993383       0.52681917       0.00000000
Si       0.74966580       0.57650962       2.74562671       0.00000000
Si       2.01269466      -1.28237391       1.99433015       0.00000000
Si      -1.67479445      -2.72193750       0.65368118       0.00000000
Si       0.44235495      -1.02758202      -3.13729675       0.00000000
Si      -0.52061211      -2.80506537      -1.75928668       0.00000000
Si      -3.23971352       0.88355168       0.13673749       0.00000000
Si       3.13795899      -1.31956398      -0.68783103       0.00000000
