10
Lattice="16.28999089631971 0.0 0.0 0.0 16.28999089631971 0.0 0.0 0.0 34.529650657227435" Properties=species:S:1:pos:R:3:initial_magmoms:R:1 pbc="T T T"
Si      -1.62502524       1.06025094       1.25978048       0.00000000
Si      -1.34617302      -1.34271954      -1.35031727       0.00000000
Si       1.36653552       1.38333051      -1.34234092       0.00000000
Si       1.32734178      -1.39562946       1.38740214       0.00000000
Si       0.23016141       1.95709689       2.74932138       0.00000000
Si       2.13425064       0.37779768       2.76016370       0.00000000
Si      -2.70205488      -2.67768504       0.04564822       0.00000000
Si       0.00311139      -2.69213427      -2.70519246       0.00000000
Si      -2.71044423       0.01980864      -2.70211932       0.00000000
Si       2.73215880      -2.68943013       0.01070420       0.00000000
