10
Lattice="16.28999089631971 0.0 0.0 0.0 16.28999089631971 0.0 0.0 0.0 34.529650657227435" Properties=species:S:1:pos:R:3:initial_magmoms:R:1 pbc="T T T"
Si       1.35641943       1.35552348       1.35825910       0.00000000
Si       1.35755973      -1.35741312      -1.35698150       0.00000000
Si      -1.35754344       1.35783666      -1.35746491       0.00000000
Si      -1.35821133      -1.35923760       1.35767209       0.00000000
Si       2.71265967       0.00037467      -2.71389394       0.00000000
Si       0.00035838       2.71357191      -2.71461906       0.00000000
Si      -2.71494027      -2.71456560       0.00000000       0.00000000
Si      -2.71551042       0.00037467      -2.71458453       0.00000000
Si       0.00153126      -2.71570590      -2.71455000       0.00000000
Si       2.71557558       2.71480995       0.00031077       0.00000000
