10
Lattice="16.28999089631971 0.0 0.0 0.0 16.28999089631971 0.0 0.0 0.0 34.529650657227435" Properties=species:S:1:pos:R:3:initial_magmoms:R:1 pbc="T T T"
Si       0.46216359       2.20664340      -0.54208129       0.00000000
Si      -2.09411208      -0.10456551      -1.04210544       0.00000000
Si      -0.30216321      -0.14599098       2.39846540       0.00000000
Si       1.80960723      -1.33954299      -0.98288706       0.00000000
Si       1.82314422      -1.14556167       2.59891014       0.00000000
Si       2.05312644      -2.75340096       0.86168791       0.00000000
Si      -2.28328785      -1.36464588       2.55208791       0.00000000
Si      -1.89257220      -1.84265964      -2.58799876       0.00000000
Si      -3.63752442      -0.65521638       0.71238162       0.00000000
Si      -2.27357901       1.89959319      -2.35274812       0.00000000
