10
Lattice="16.28999089631971 0.0 0.0 0.0 16.28999089631971 0.0 0.0 0.0 34.529650657227435" Properties=species:S:1:pos:R:3:initial_magmoms:R:1 pbc="T T T"
Si      -1.96397846      -1.09609759       0.61276352       0.00000000
Si       1.10069901       1.26520048       1.65248641       0.00000000
Si       1.48232484      -1.61584633      -0.88023035       0.00000000
Si      -0.68127386       1.33904305      -1.85503746       0.00000000
Si       0.94387518       2.96929086      -1.45356099       0.00000000
Si      -2.19826124      -2.25778636      -1.40515039       0.00000000
Si       0.40663098       3.31550223       0.87940163       0.00000000
Si       3.13579242       1.69593414       0.47205512       0.00000000
Si      -0.06035445      -2.91337741      -2.15606712       0.00000000
Si      -1.34178612      -2.51876845       2.35530332       0.00000000
