10
Lattice="16.28999089631971 0.0 0.0 0.0 16.28999089631971 0.0 0.0 0.0 34.529650657227435" Properties=species:S:1:pos:R:3:initial_magmoms:R:1 pbc="T T T"
Si       1.33128396       1.35995829       1.34130503       0.00000000
Si      -1.35467640       1.35507780      -1.35487519       0.00000000
Si       1.35695700      -1.35731538      -1.35477160       0.00000000
Si      -1.34982198      -1.35545832       1.39006092       0.00000000
Si       2.63239884      -0.01601836       2.69780311       0.00000000
Si      -2.71151937      -2.71394658       0.00787276       0.00000000
Si      -2.71419093      -0.00067343      -2.71227105       0.00000000
Si       0.00074934      -2.71479366      -2.71209840       0.00000000
Si       0.00188964       2.71496375      -2.71282352       0.00000000
Si       2.71577106      -0.00045336      -2.71261634       0.00000000
