10
Lattice="16.28999089631971 0.0 0.0 0.0 16.28999089631971 0.0 0.0 0.0 34.529650657227435" Properties=species:S:1:pos:R:3:initial_magmoms:R:1 pbc="T T T"
Si       1.37438730       1.82174328       0.17561790       0.00000000
Si      -2.27734919       0.26831259       0.12019778       0.00000000
Si       0.69406803      -2.05030175       0.77308478       0.00000000
Si       0.53724420      -0.34621137      -2.33296262       0.00000000
Si       2.72916144      -1.61956809      -0.40734652       0.00000000
Si       3.35823237       0.68131296      -0.14336719       0.00000000
Si      -0.40663098      -3.31550223      -0.87940163       0.00000000
Si      -1.08790484      -1.97645918      -2.73443909       0.00000000
Si       0.73901214       3.09363390      -1.65286624       0.00000000
Si      -3.04411949      -0.78343497      -1.90189422       0.00000000
