10
Lattice="16.28999089631971 0.0 0.0 0.0 16.28999089631971 0.0 0.0 0.0 34.529650657227435" Properties=species:S:1:pos:R:3:initial_magmoms:R:1 pbc="T T T"
Si      -1.59301539       1.56079770      -0.60685895       0.00000000
Si       1.48357917       0.14375925       1.83580443       0.00000000
Si       1.05614586      -0.90930780      -1.92140348       0.00000000
Si      -1.38965103      -1.96195131       0.02427436       0.00000000
Si       1.14238512      -2.07407538       2.47163378       0.00000000
Si       0.42296985      -3.35588661       0.57481542       0.00000000
Si       2.07787095       2.19260535      -1.75469424       0.00000000
Si      -0.87408882      -0.36685080      -3.58531922       0.00000000
Si      -2.60216460       0.87913872      -2.56514012       0.00000000
Si      -3.72742893       0.91632879       0.11702105       0.00000000
