10
Lattice="16.28999089631971 0.0 0.0 0.0 16.28999089631971 0.0 0.0 0.0 34.529650657227435" Properties=species:S:1:pos:R:3:initial_magmoms:R:1 pbc="T T T"
Si       1.35466011      -1.35298166      -1.35408101       0.00000000
Si      -1.35801585      -1.35568580       1.35698150       0.00000000
Si       1.35654975       1.35867522       1.35711962       0.00000000
Si      -1.35843939       1.35827612      -1.36364573       0.00000000
Si       2.68840386      -0.00244444      -2.72926655       0.00000000
Si       2.71243161      -2.71197491      -0.00051795       0.00000000
Si       2.71138905       2.71602318      -0.00093230       0.00000000
Si      -0.00048870      -2.71358762       2.71406659       0.00000000
Si       2.71383255       0.00146968       2.71399753       0.00000000
Si      -2.71643895      -2.71252877      -0.00075965       0.00000000
