10
Lattice="16.28999089631971 0.0 0.0 0.0 16.28999089631971 0.0 0.0 0.0 34.529650657227435" Properties=species:S:1:pos:R:3:initial_magmoms:R:1 pbc="T T T"
Si      -1.25524224       1.45163448      -1.34296245       0.00000000
Si       1.44502074      -1.29833255      -1.33433004       0.00000000
Si       1.50832368       1.14435621       1.41440434       0.00000000
Si      -1.75568733      -0.86521077       1.36816911       0.00000000
Si       3.32426772      -0.71407215       1.36209189       0.00000000
Si      -2.62519866       0.09169641      -2.69811388       0.00000000
Si       0.09557343      -2.62727468      -2.69890806       0.00000000
Si      -2.70827766      -2.64036084      -0.00321126       0.00000000
Si      -2.66005926       2.74543515       0.03373549       0.00000000
Si      -0.74155338      -1.63672472       3.37707078       0.00000000
