10
Lattice="16.28999089631971 0.0 0.0 0.0 16.28999089631971 0.0 0.0 0.0 34.529650657227435" Properties=species:S:1:pos:R:3:initial_magmoms:R:1 pbc="T T T"
Si       1.35663120       1.35567009      -1.35777568       0.00000000
Si      -1.35773892       1.35653346       1.35608373       0.00000000
Si       1.35755973      -1.35728280       1.35660167       0.00000000
Si      -1.35856971      -1.35703845      -1.35725774       0.00000000
Si       2.71363707      -0.00001629       2.71337599       0.00000000
Si       0.00000000       2.71375110       2.71410112       0.00000000
Si      -2.71704168       0.00122175       2.71151139       0.00000000
Si      -2.71454931      -2.71483927       0.00000000       0.00000000
Si      -2.71482624       2.71498914      -0.00006906       0.00000000
Si       2.71505430       2.71479366      -0.00058700       0.00000000
