10
Lattice="16.28999089631971 0.0 0.0 0.0 16.28999089631971 0.0 0.0 0.0 34.529650657227435" Properties=species:S:1:pos:R:3:initial_magmoms:R:1 pbc="T T T"
Si       1.20687723       1.77898203      -1.13126105       0.00000000
Si      -1.52717121      -0.26665101      -1.87727457       0.00000000
Si       1.48727700      -2.05001505       0.02776185       0.00000000
Si      -1.13314869       1.20822930       2.01225105       0.00000000
Si      -2.32728714       1.93056048      -1.98410937       0.00000000
Si      -3.42897984      -1.29559257      -1.02718862       0.00000000
Si      -2.40837876       2.93392674       0.35506860       0.00000000
Si       2.23256079      -2.14141824       2.37747137       0.00000000
Si       1.83200598       3.49013250       0.33082877       0.00000000
Si       3.20549733       0.86319081      -2.15734472       0.00000000
