10
Lattice="16.28999089631971 0.0 0.0 0.0 16.28999089631971 0.0 0.0 0.0 34.529650657227435" Properties=species:S:1:pos:R:3:initial_magmoms:R:1 pbc="T T T"
Si      -1.26164421      -1.44381528       1.59603183       0.00000000
Si       1.38365631       1.20301650       1.70424436       0.00000000
Si       1.13314869      -1.20822930      -2.01225105       0.00000000
Si      -1.27523007       1.72569744      -1.65718245       0.00000000
Si      -2.69737965       2.42804079       0.11398244       0.00000000
Si      -2.88158697      -2.53175922       0.23138332       0.00000000
Si       3.30111963       1.96633332       0.54496007       0.00000000
Si       2.34002592       0.57075273      -3.14351209       0.00000000
Si      -2.59447572      -0.04799034       3.16225622       0.00000000
Si       2.96515467       2.28190320      -1.68142228       0.00000000
