10
Lattice="16.28999089631971 0.0 0.0 0.0 16.28999089631971 0.0 0.0 0.0 34.529650657227435" Properties=species:S:1:pos:R:3:initial_magmoms:R:1 pbc="T T T"
Si       1.06016949       1.85846094      -1.10752397       0.00000000
Si       1.49709987      -1.18887678       1.48486904       0.00000000
Si      -1.22481252       1.50247557       1.50106000       0.00000000
Si      -1.31380479      -1.43534448      -1.56302146       0.00000000
Si      -2.65802301      -2.63300157       0.06115895       0.00000000
Si      -2.61920394       2.71528236       0.00222371       0.00000000
Si       0.14170671      -2.53899198       2.87032716       0.00000000
Si       2.76723117      -2.66036877       0.02724046       0.00000000
Si      -2.57108328       0.17803341       2.87920128       0.00000000
Si      -0.71402328       3.61089027      -1.32145189       0.00000000
