10
Lattice="16.28999089631971 0.0 0.0 0.0 16.28999089631971 0.0 0.0 0.0 34.529650657227435" Properties=species:S:1:pos:R:3:initial_magmoms:R:1 pbc="T T T"
Si       1.35368271      -1.22552928      -1.50024510       0.00000000
Si       1.85355765       0.83735487       1.23540253       0.00000000
Si      -1.36316349       1.48550139      -1.47452050       0.00000000
Si      -1.13801940      -1.99567161       1.22145254       0.00000000
Si       2.62933632      -2.60379360       0.00220990       0.00000000
Si       2.64463263       2.70000234      -0.09070944       0.00000000
Si      -0.00164529      -2.56943799      -2.87020976       0.00000000
Si       0.76606983      -3.57497082       1.23229486       0.00000000
Si       3.63773619      -0.82417626       1.12787714       0.00000000
Si      -2.73504213       2.79915957       0.01826620       0.00000000
