10
Lattice="16.28999089631971 0.0 0.0 0.0 16.28999089631971 0.0 0.0 0.0 34.529650657227435" Properties=species:S:1:pos:R:3:initial_magmoms:R:1 pbc="T T T"
Si       1.35270381       1.35250983       1.37499218       0.00000000
Si      -1.35942873      -1.36384767       1.37126297       0.00000000
Si      -1.46389650       1.22852664      -1.42613407       0.00000000
Si       1.30317570      -1.44678006      -1.42342349       0.00000000
Si      -2.24821113      -0.72239634      -2.63172955       0.00000000
Si      -0.43549251      -2.45084679      -2.86167544       0.00000000
Si       2.71260604       2.69689095      -0.01067657       0.00000000
Si      -2.73370200       2.70143586      -0.00860134       0.00000000
Si      -0.00422587       2.70671382       2.73515040       0.00000000
Si      -0.14823465       2.81351106      -2.62257816       0.00000000
