10
Lattice="16.28999089631971 0.0 0.0 0.0 16.28999089631971 0.0 0.0 0.0 34.529650657227435" Properties=species:S:1:pos:R:3:initial_magmoms:R:1 pbc="T T T"
Si      -1.35542574      -1.35428544      -1.35560031       0.00000000
Si      -1.42312698       1.20557403       1.42673143       0.00000000
Si       1.35166275       1.36394541      -1.35439177       0.00000000
Si       1.32646212      -1.32928029       1.43867870       0.00000000
Si       0.45023931       2.17533402       2.71320335       0.00000000
Si      -0.43002342      -2.31860457       2.64531802       0.00000000
Si      -2.21420196      -0.65707344       2.75284341       0.00000000
Si       2.14004988       0.34072164       2.89075491       0.00000000
Si      -0.00275301      -2.70967860      -2.71341052       0.00000000
Si       2.71355562       0.00232947      -2.71251275       0.00000000
