10
Lattice="16.28999089631971 0.0 0.0 0.0 16.28999089631971 0.0 0.0 0.0 34.529650657227435" Properties=species:S:1:pos:R:3:initial_magmoms:R:1 pbc="T T T"
Si      -1.33374375      -1.35053721       1.37518554       0.00000000
Si       1.22122872      -1.48458762      -1.36450206       0.00000000
Si       1.38538305       1.35984579       1.36489570       0.00000000
Si      -1.34210052       1.29760007      -1.55597599       0.00000000
Si       2.29012965       0.27213154      -2.55174434       0.00000000
Si       0.56068551       2.11754582      -2.81676615       0.00000000
Si      -2.68195302      -2.69723151      -0.00081835       0.00000000
Si      -2.68573230       2.71418336      -0.02918793       0.00000000
Si      -2.68840386       0.00244444       2.72926655       0.00000000
Si       0.02402775      -2.70953046       2.72874860       0.00000000
