10
Lattice="16.28999089631971 0.0 0.0 0.0 16.28999089631971 0.0 0.0 0.0 34.529650657227435" Properties=species:S:1:pos:R:3:initial_magmoms:R:1 pbc="T T T"
Si      -1.13464737       2.06485524      -0.39981905       0.00000000
Si       0.90947070      -0.92491362      -2.00848731       0.00000000
Si       1.27931886       0.63659691       1.96618847       0.00000000
Si      -1.08952407      -1.94492826       1.14424420       0.00000000
Si      -2.30972652       1.69999182       1.55065842       0.00000000
Si      -0.82425771       0.71487036       3.13329131       0.00000000
Si       2.26529459       2.47997331       0.60243915       0.00000000
Si       2.75035540      -2.17122894      -1.06534391       0.00000000
Si       0.22755501       3.96164655       0.12807055       0.00000000
Si       2.07281115       0.65614491      -3.39654551       0.00000000
