10
Lattice="16.28999089631971 0.0 0.0 0.0 16.28999089631971 0.0 0.0 0.0 34.529650657227435" Properties=species:S:1:pos:R:3:initial_magmoms:R:1 pbc="T T T"
Si       0.53017434      -2.25375408      -0.01394999       0.00000000
Si       1.54658793       1.49884290      -0.96631281       0.00000000
Si       0.12323385       0.88107723       2.18921560       0.00000000
Si      -2.36934792      -0.42298614      -0.13808415       0.00000000
Si      -0.68663979      -2.70945054       2.04294792       0.00000000
Si      -1.72353087       2.28172401       2.05499878       0.00000000
Si       0.37783026       2.02795839      -2.91862035       0.00000000
Si       2.50107605       2.44027458       1.03060706       0.00000000
Si      -0.61123338      -0.83966805       3.59674854       0.00000000
Si       2.80752353      -2.52206667      -0.13414777       0.00000000
