10
Lattice="16.28999089631971 0.0 0.0 0.0 16.28999089631971 0.0 0.0 0.0 34.529650657227435" Properties=species:S:1:pos:R:3:initial_magmoms:R:1 pbc="T T T"
Si      -1.84676472       1.40064678      -0.13421683       0.00000000
Si      -0.73446723      -1.72074528       1.40753294       0.00000000
Si      -0.12323385      -0.88107723      -2.18921560       0.00000000
Si       1.30576146       1.71455508       1.03651163       0.00000000
Si       2.37784220       1.55919735      -1.15860855       0.00000000
Si       1.42335408       0.61776567      -3.15552842       0.00000000
Si      -2.49258177      -1.30406337      -2.32729975       0.00000000
Si      -0.80987364      -3.59052777      -0.14626768       0.00000000
Si      -2.73308733      -0.80495406       2.43361661       0.00000000
Si       0.40694049      -3.13483131      -2.20316559       0.00000000
