10
Lattice="16.28999089631971 0.0 0.0 0.0 16.28999089631971 0.0 0.0 0.0 34.529650657227435" Properties=species:S:1:pos:R:3:initial_magmoms:R:1 pbc="T T T"
Si      -0.98860752      -1.68311538       1.42140838       0.00000000
Si       1.73866821       1.00406673       1.43825195       0.00000000
Si      -1.81271862       1.72845045       0.22994589       0.00000000
Si       0.70220718      -1.07297343      -2.51842148       0.00000000
Si       2.19296699       2.37092805      -1.40591004       0.00000000
Si      -2.14868358       2.04402033      -1.99643646       0.00000000
Si      -2.30539338      -0.28377180       2.86392678       0.00000000
Si       0.43549251       2.45084679       2.86167544       0.00000000
Si      -1.74812877      -3.58753041       0.05020614       0.00000000
Si      -1.02840399       3.67937343       1.43554137       0.00000000
