10
Lattice="16.28999089631971 0.0 0.0 0.0 16.28999089631971 0.0 0.0 0.0 34.529650657227435" Properties=species:S:1:pos:R:3:initial_magmoms:R:1 pbc="T T T"
Si      -1.17507915      -0.36486342       1.95047747       0.00000000
Si      -1.29065670       0.42327936      -1.87969164       0.00000000
Si       1.13464737      -2.06485524       0.39981905       0.00000000
Si       1.36220238       1.89679131       0.52788959       0.00000000
Si       0.46582884       1.41260364      -3.08633096       0.00000000
Si       3.39994196       0.41511807       1.00225820       0.00000000
Si       2.41396623      -1.42825833       2.36600751       0.00000000
Si       1.27941660       3.08260557      -1.63425475       0.00000000
Si      -1.58236173       1.70937486       2.91392432       0.00000000
Si       0.31038966      -1.34998488       3.53311036       0.00000000
