10
Lattice="16.28999089631971 0.0 0.0 0.0 16.28999089631971 0.0 0.0 0.0 34.529650657227435" Properties=species:S:1:pos:R:3:initial_magmoms:R:1 pbc="T T T"
Si       0.79353477      -1.10905578      -1.99985489       0.00000000
Si       1.45811790       1.94285943       0.23000213       0.00000000
Si      -2.46161448       0.31659615      -0.21442925       0.00000000
Si      -0.77744025      -2.05405497       1.18498921       0.00000000
Si       1.01631681      -1.12695849       2.38945316       0.00000000
Si      -2.65197942      -1.83280419      -1.40863789       0.00000000
Si      -0.60189921      -3.01200471      -1.79612984       0.00000000
Si       0.24816186       3.36774573       1.70959849       0.00000000
Si       1.42863300       2.98256868      -1.89819955       0.00000000
Si       0.37049976      -3.83166864       0.19637023       0.00000000
