10
Lattice="16.28999089631971 0.0 0.0 0.0 16.28999089631971 0.0 0.0 0.0 34.529650657227435" Properties=species:S:1:pos:R:3:initial_magmoms:R:1 pbc="T T T"
Si      -1.35154872       1.35591444       1.35781021       0.00000000
Si       1.35307998      -1.35459495       1.35908781       0.00000000
Si      -1.35610992      -1.35689184      -1.35677432       0.00000000
Si       1.35821133       1.35816545      -1.35684338       0.00000000
Si      -0.00210141       2.68485657       2.72238824       0.00000000
Si      -2.71363707       0.00100998      -2.71385941       0.00000000
Si       0.00092853      -2.71391400      -2.71417018       0.00000000
Si      -2.71337643      -2.71503801       0.00031077       0.00000000
Si      -2.71492398       2.71397331       0.00048342       0.00000000
Si       0.00092853       2.71537100      -2.71372129       0.00000000
