10
Lattice="16.28999089631971 0.0 0.0 0.0 16.28999089631971 0.0 0.0 0.0 34.529650657227435" Properties=species:S:1:pos:R:3:initial_magmoms:R:1 pbc="T T T"
Si      -1.35307998       1.35459495      -1.35908781       0.00000000
Si      -1.35166275      -1.36394541       1.35439177       0.00000000
Si       1.36189287      -1.36161594      -1.35812098       0.00000000
Si       1.36959804       1.36502055       1.37486787       0.00000000
Si       2.55725307      -0.14403618       2.80215178       0.00000000
Si      -2.70462870       2.71050939      -0.00127760       0.00000000
Si      -2.70918990      -0.00229689      -2.71586213       0.00000000
Si      -2.70708849      -2.71823085      -0.00120854       0.00000000
Si       0.00513135       2.71276040      -2.71593119       0.00000000
Si       0.00477297      -2.71642266      -2.71600025       0.00000000
