10
Lattice="16.28999089631971 0.0 0.0 0.0 16.28999089631971 0.0 0.0 0.0 34.529650657227435" Properties=species:S:1:pos:R:3:initial_magmoms:R:1 pbc="T T T"
Si       1.34157841       1.12192488       1.62361961       0.00000000
Si       1.36927630      -1.26381078      -1.51271031       0.00000000
Si      -1.16334045      -1.58105853       1.38805820       0.00000000
Si      -1.34841114       1.43254260      -1.49057679       0.00000000
Si       2.31461432      -1.14662052       1.89681836       0.00000000
Si       2.57054651       2.69293248      -0.13273205       0.00000000
Si       0.67754425      -2.82737385       2.33120161       0.00000000
Si       3.22123427      -1.98161334      -0.16204774       0.00000000
Si      -2.75870160      -2.72163546      -0.03301036       0.00000000
Si       0.00747449      -2.63652021      -2.88219155       0.00000000
