10
Lattice="16.28999089631971 0.0 0.0 0.0 16.28999089631971 0.0 0.0 0.0 34.529650657227435" Properties=species:S:1:pos:R:3:initial_magmoms:R:1 pbc="T T T"
Si      -1.00693866       2.09909682       0.27285345       0.00000000
Si       1.77585435      -0.24172731       1.62206578       0.00000000
Si      -1.44780633      -1.40867775      -1.47569450       0.00000000
Si       1.71380574       0.85413357      -1.93987686       0.00000000
Si      -1.06885206      -1.56713058       2.67667096       0.00000000
Si       0.57989142      -0.12675249       3.64301830       0.00000000
Si      -2.97599471       1.74276936       1.51913283       0.00000000
Si       2.63692746      -2.42725887       1.30131967       0.00000000
Si       0.26977869       3.33589878       1.82689578       0.00000000
Si      -1.10127242       3.26725272      -1.75158657       0.00000000
