10
Lattice="16.28999089631971 0.0 0.0 0.0 16.28999089631971 0.0 0.0 0.0 34.529650657227435" Properties=species:S:1:pos:R:3:initial_magmoms:R:1 pbc="T T T"
Si       1.97532540       1.10229543       0.61020833       0.00000000
Si      -1.27835775       0.75758274      -1.81318750       0.00000000
Si       1.02089430      -2.12374359      -0.19661194       0.00000000
Si      -1.08727605       0.19618047       2.09660703       0.00000000
Si       2.24525070       0.06371019       2.73440456       0.00000000
Si       2.02711131      -2.19147741       2.03355585       0.00000000
Si      -1.58933385      -2.01267837       2.63917173       0.00000000
Si       1.33222878       3.32104230       1.19893920       0.00000000
Si       2.13291486      -2.25235314      -2.31517984       0.00000000
Si      -1.74987180       3.08609163      -1.56105185       0.00000000
