10
Lattice="16.28999089631971 0.0 0.0 0.0 16.28999089631971 0.0 0.0 0.0 34.529650657227435" Properties=species:S:1:pos:R:3:initial_magmoms:R:1 pbc="T T T"
Si      -1.35544529      -1.35612621       1.35739586       0.00000000
Si       1.35943308       1.35881406       1.35732680       0.00000000
Si      -1.35693745       1.36225125      -1.35777568       0.00000000
Si       1.36036161      -1.35736425      -1.36295513       0.00000000
Si      -2.71190364       2.71551085       0.00041436       0.00000000
Si      -2.71270666       0.00110772       2.71479171       0.00000000
Si      -2.71319924      -2.71524978       0.00124307       0.00000000
Si       0.00125433      -2.71427238       2.71423924       0.00000000
Si       0.00193851       2.71602616       2.71492983       0.00000000
Si       2.71687878       0.00190593       2.71510248       0.00000000
