10
Lattice="16.28999089631971 0.0 0.0 0.0 16.28999089631971 0.0 0.0 0.0 34.529650657227435" Properties=species:S:1:pos:R:3:initial_magmoms:R:1 pbc="T T T"
Si       1.26306144       1.43755992       1.46751097       0.00000000
Si      -2.42442767      -0.00200367       0.12686201       0.00000000
Si       0.39065049      -2.41512282      -0.06142828       0.00000000
Si      -1.27024533      -0.08513154      -2.28610586       0.00000000
Si      -0.74963322       2.71993383      -0.52681917       0.00000000
Si       2.38832577       1.40036985      -1.21465020       0.00000000
Si       0.44528715      -1.97296335      -2.48592906       0.00000000
Si      -2.33009391      -1.17015957       2.15130203       0.00000000
Si       1.22901534       0.29452320       3.46802193       0.00000000
Si      -1.05337656       0.06664239       3.70534435       0.00000000
