10
Lattice="10.86 0.0 0.0 0.0 10.86 0.0 0.0 0.0 10.86" Properties=species:S:1:pos:R:3:initial_magmoms:R:1 pbc="T T T"
Si       1.30955310      -1.46284200      -1.22991672       0.00000000
Si      -1.49199024       1.40987778      -1.21723224       0.00000000
Si       1.22300976       1.40987778       1.49776776       0.00000000
Si      -1.49199024      -1.30512222       1.49776776       0.00000000
Si       2.41890210       0.18419646      -2.62556790       0.00000000
Si      -0.13449024       2.76737778      -2.57473224       0.00000000
Si       2.58050976       2.76737778       0.14026776       0.00000000
Si      -0.11080458      -2.82199272      -2.56802076       0.00000000
Si      -2.84949024       0.05237778      -2.57473224       0.00000000
Si       2.47791534       0.06469302       2.96767962       0.00000000
