10
Lattice="10.86 0.0 0.0 0.0 10.86 0.0 0.0 0.0 10.86" Properties=species:S:1:pos:R:3:initial_magmoms:R:1 pbc="T T T"
Si       1.20001914      -1.06201026      -1.44643254       0.00000000
Si      -1.51498086      -1.06201026       1.26856746       0.00000000
Si       1.20001914       1.65298974       1.26856746       0.00000000
Si       2.55751914      -2.41951026      -0.08893254       0.00000000
Si      -0.15748086      -2.41951026       2.62606746       0.00000000
Si      -2.91445476      -2.09100612      -0.37370346       0.00000000
Si       2.55751914       0.29548974       2.62606746       0.00000000
Si      -0.32846070      -2.25550254      -2.92757364       0.00000000
Si       2.55751914       0.29548974      -2.80393254       0.00000000
Si      -2.87248086       0.29548974       2.62606746       0.00000000
