10
Lattice="10.86 0.0 0.0 0.0 10.86 0.0 0.0 0.0 10.86" Properties=species:S:1:pos:R:3:initial_magmoms:R:1 pbc="T T T"
Si       1.18764960      -1.18718262      -1.29129744       0.00000000
Si      -1.52735040      -1.18718262       1.42370256       0.00000000
Si      -1.52735040       1.52781738      -1.29129744       0.00000000
Si       1.37004330       1.36858806       1.74406170       0.00000000
Si       0.83722998      -0.27430188       3.30147258       0.00000000
Si      -0.23707380      -2.32297572       2.76348990       0.00000000
Si       2.68475490      -2.46725082      -0.08138484       0.00000000
Si      -0.16985040      -2.54468262      -2.64879744       0.00000000
Si       2.54514960       0.17031738      -2.64879744       0.00000000
Si      -0.08888910       2.76404376       2.63763336       0.00000000
