10
Lattice="10.86 0.0 0.0 0.0 10.86 0.0 0.0 0.0 10.86" Properties=species:S:1:pos:R:3:initial_magmoms:R:1 pbc="T T T"
Si      -1.32202038      -1.33910316       1.36068198       0.00000000
Si      -1.32202038       1.37589684      -1.35431802       0.00000000
Si       1.39297962       1.37589684       1.36068198       0.00000000
Si       2.58692802      -2.50756314      -0.15997866       0.00000000
Si      -2.67952038       0.01839684       2.71818198       0.00000000
Si      -2.67952038       2.73339684       0.00318198       0.00000000
Si       0.03547962      -2.69660316       2.71818198       0.00000000
Si       0.03547962       2.73339684      -2.71181802       0.00000000
Si       0.03547962       2.73339684       2.71818198       0.00000000
Si      -2.59855908      -0.10287678      -2.85538722       0.00000000
