10
Lattice="10.86 0.0 0.0 0.0 10.86 0.0 0.0 0.0 10.86" Properties=species:S:1:pos:R:3:initial_magmoms:R:1 pbc="T T T"
Si       1.26349584      -1.16091228      -1.28708376       0.00000000
Si       1.26349584       1.55408772       1.42791624       0.00000000
Si      -1.45150416       1.55408772      -1.28708376       0.00000000
Si      -0.25755576      -2.32937226       2.62225560       0.00000000
Si       2.62099584      -2.51841228       0.07041624       0.00000000
Si       0.24761886      -2.19462138      -2.96447592       0.00000000
Si       2.62099584       0.19658772      -2.64458376       0.00000000
Si       2.62099584       0.19658772       2.78541624       0.00000000
Si      -2.98553346       0.30430806      -2.51251530       0.00000000
Si       2.62099584       2.91158772       0.07041624       0.00000000
