10
Lattice="10.86 0.0 0.0 0.0 10.86 0.0 0.0 0.0 10.86" Properties=species:S:1:pos:R:3:initial_magmoms:R:1 pbc="T T T"
Si      -1.66187322       0.98670702      -0.99325560       0.00000000
Si       1.05312678       0.98670702       1.72174440       0.00000000
Si       1.05312678      -1.72829298      -0.99325560       0.00000000
Si      -0.30437322       2.34420702      -2.35075560       0.00000000
Si       2.41062678       2.34420702       0.36424440       0.00000000
Si       2.41062678      -0.37079298      -2.35075560       0.00000000
Si      -0.24616362       2.16274728       3.05181204       0.00000000
Si      -3.01937322      -0.37079298      -2.35075560       0.00000000
Si      -0.30437322      -3.08579298      -2.35075560       0.00000000
Si       2.41062678      -0.37079298       3.07924440       0.00000000
