10
Lattice="16.28999089631971 0.0 0.0 0.0 16.28999089631971 0.0 0.0 0.0 34.3005442915855" Properties=species:S:1:pos:R:3:initial_magmoms:R:1 pbc="T T T"
Si      -1.63912979       0.96500657      -1.48788984       0.00000000
Si       1.04264959      -1.72402676      -1.39370049       0.00000000
Si       1.78247786       1.71152514      -0.43479394       0.00000000
Si      -1.76632211       0.82304573       1.89664966       0.00000000
Si       1.26521986      -1.45791332       2.86104430       0.00000000
Si      -2.65334519       2.56241700       0.01262261       0.00000000
Si      -0.35375105       2.22658236      -3.05494538       0.00000000
Si       2.25685895      -0.60967673      -3.09641477       0.00000000
Si       3.32388653       1.61471367       1.33103337       0.00000000
Si       3.33949235      -0.61384697       2.05354043       0.00000000
