10
Lattice="16.28999089631971 0.0 0.0 0.0 16.28999089631971 0.0 0.0 0.0 34.3005442915855" Properties=species:S:1:pos:R:3:initial_magmoms:R:1 pbc="T T T"
Si      -0.49398936      -0.42635817      -2.26452320       0.00000000
Si      -1.59873385       0.26898048       1.73516260       0.00000000
Si       0.73157413      -2.25469890       0.23200901       0.00000000
Si       1.89049360       1.51531209      -0.22007242       0.00000000
Si      -0.20947963       1.88533944       2.77100532       0.00000000
Si       1.71897619      -0.80480745      -2.89692269       0.00000000
Si       2.48835289      -2.36532429      -1.29512068       0.00000000
Si      -1.09428385      -3.57524775      -0.52562183       0.00000000
Si       3.32098366       0.90337824       1.55621656       0.00000000
Si      -1.45601716       1.46401488      -3.25502057       0.00000000
