10
Lattice="16.28999089631971 0.0 0.0 0.0 16.28999089631971 0.0 0.0 0.0 34.3005442915855" Properties=species:S:1:pos:R:3:initial_magmoms:R:1 pbc="T T T"
Si       1.33154460      -1.42560047       1.32671149       0.00000000
Si       1.36893015       1.34359268      -1.37819664       0.00000000
Si      -1.34996859      -1.36910675      -1.37953436       0.00000000
Si      -1.31939226       1.38433397       1.52853601       0.00000000
Si      -2.70138699       2.70599054       0.00912395       0.00000000
Si       2.74445775       2.68859282       0.00943265       0.00000000
Si      -2.70466128      -2.73241685      -0.01859091       0.00000000
Si       0.00908982       2.70113612      -2.73852269       0.00000000
Si      -2.70471015      -0.01492327      -2.73914010       0.00000000
Si       2.71738377      -2.74333115      -0.02960139       0.00000000
