10
Lattice="16.28999089631971 0.0 0.0 0.0 16.28999089631971 0.0 0.0 0.0 34.3005442915855" Properties=species:S:1:pos:R:3:initial_magmoms:R:1 pbc="T T T"
Si      -1.46517147      -1.94020416      -0.35357021       0.00000000
Si      -1.34395758       1.79027100       1.14958338       0.00000000
Si       1.26965889      -0.06607224      -2.17403831       0.00000000
Si       1.41636663      -1.92454947       1.61689426       0.00000000
Si       0.54341811      -3.19531608      -0.22202755       0.00000000
Si       3.22820559       1.19017998       0.43746939       0.00000000
Si      -2.42914851      -1.43620785      -2.40529271       0.00000000
Si      -0.50055912      -0.73451610      -3.66007592       0.00000000
Si       0.26435412       3.54576285       1.33710456       0.00000000
Si       3.55486896      -1.13979501       0.81285475       0.00000000
