10
Lattice="16.28999089631971 0.0 0.0 0.0 16.28999089631971 0.0 0.0 0.0 34.3005442915855" Properties=species:S:1:pos:R:3:initial_magmoms:R:1 pbc="T T T"
Si      -0.58764546       2.21662917       0.46268030       0.00000000
Si       0.40019643       0.49863690      -2.31017725       0.00000000
Si      -2.01220596      -1.28379861       0.50438979       0.00000000
Si       2.11771629      -0.46356453       1.15685510       0.00000000
Si       2.44850103      -2.65947282       0.39479949       0.00000000
Si       1.38621384       3.40086330      -0.14461118       0.00000000
Si       2.00850813       2.25412875      -2.12265607       0.00000000
Si      -1.20754512       2.29827465       2.67160229       0.00000000
Si      -1.47352824       1.87856280      -2.90947669       0.00000000
Si      -2.37280140       2.85975837      -0.92405718       0.00000000
