10
Lattice="16.28999089631971 0.0 0.0 0.0 16.28999089631971 0.0 0.0 0.0 34.3005442915855" Properties=species:S:1:pos:R:3:initial_magmoms:R:1 pbc="T T T"
Si      -2.13934941      -0.90565884       0.48795982       0.00000000
Si      -0.22209786       0.18471231      -2.38145382       0.00000000
Si      -0.55170972       2.09153826       1.06444939       0.00000000
Si       1.82687463      -1.28616066       0.94827338       0.00000000
Si      -2.77798257       1.38603465       0.73509538       0.00000000
Si      -1.33206588      -2.58180210       2.02994165       0.00000000
Si       1.55926251       1.69598448      -2.73474962       0.00000000
Si       0.78138243      -3.35717352       1.24613947       0.00000000
Si       0.10868688      -2.01119598      -3.14350944       0.00000000
Si       3.65638824      -0.95764023      -0.50370377       0.00000000
