10
Lattice="16.28999089631971 0.0 0.0 0.0 16.28999089631971 0.0 0.0 0.0 34.3005442915855" Properties=species:S:1:pos:R:3:initial_magmoms:R:1 pbc="T T T"
Si      -1.35474156       1.35418348      -1.35960573       0.00000000
Si       1.36029645      -1.36199061      -1.35658728       0.00000000
Si      -1.35469269      -1.36331010       1.36094346       0.00000000
Si       1.34996859       1.36910675       1.37953436       0.00000000
Si       0.17203869      -2.57909796       2.73008475       0.00000000
Si       2.68151319      -0.05649372       2.70624586       0.00000000
Si      -2.70946683       2.71035368       0.00082321       0.00000000
Si      -2.71178001      -0.00225822      -2.71602152       0.00000000
Si       0.00296478       2.71245509      -2.71581571       0.00000000
Si      -2.71067229      -2.72044629      -0.00006860       0.00000000
