10
Lattice="16.28999089631971 0.0 0.0 0.0 16.28999089631971 0.0 0.0 0.0 34.3005442915855" Properties=species:S:1:pos:R:3:initial_magmoms:R:1 pbc="T T T"
Si      -1.35641943      -1.35684297       1.35699889       0.00000000
Si      -1.35778779       1.35751086      -1.35737620       0.00000000
Si       1.35842310       1.35742941       1.35693029       0.00000000
Si       1.35729909      -1.35805006      -1.35761630       0.00000000
Si       2.71252935       0.00167787       2.71358618       0.00000000
Si       2.71487511      -0.00042354      -2.71344897       0.00000000
Si       0.00107514      -2.71530034      -2.71399778       0.00000000
Si       2.71461447      -2.71474411      -0.00054881       0.00000000
Si       0.00087966       2.71365336       2.71574711       0.00000000
Si       2.71484253       2.71458189       0.00000000       0.00000000
