10
Lattice="16.28999089631971 0.0 0.0 0.0 16.28999089631971 0.0 0.0 0.0 34.3005442915855" Properties=species:S:1:pos:R:3:initial_magmoms:R:1 pbc="T T T"
Si      -1.44485784      -0.18012993       1.88965234       0.00000000
Si       1.02591162       1.89708453      -1.07703769       0.00000000
Si      -1.86101847      -0.81294335      -1.31676433       0.00000000
Si       1.82091249      -1.61933093      -0.19393539       0.00000000
Si      -0.47517930      -2.13067403      -2.67307721       0.00000000
Si       2.25087075       0.62218189      -2.66566829       0.00000000
Si      -3.10524867      -1.61442764       0.83717385       0.00000000
Si      -2.01723957       2.07342378       2.20010674       0.00000000
Si       0.85634901      -3.45742937      -1.28325268       0.00000000
Si       3.63519495      -0.60244558      -1.25979109       0.00000000
