10
Lattice="16.28999089631971 0.0 0.0 0.0 16.28999089631971 0.0 0.0 0.0 34.3005442915855" Properties=species:S:1:pos:R:3:initial_magmoms:R:1 pbc="T T T"
Si      -0.45235701       1.44976113       1.75961891       0.00000000
Si      -1.86082299      -1.39852093      -0.34880243       0.00000000
Si       1.56885732      -1.52721031       0.90670109       0.00000000
Si       1.04029569       0.62991801      -2.05817101       0.00000000
Si       1.17162567      -1.61873404      -2.73190268       0.00000000
Si       1.29437082      -3.07686239      -0.85535315       0.00000000
Si       1.68381585       2.45513106       2.15421259       0.00000000
Si      -0.97743258      -3.58201529      -0.15322062       0.00000000
Si      -2.40987744       2.63630844       1.17753834       0.00000000
Si       2.95940430       1.87796007      -1.38732059       0.00000000
