10
Lattice="16.28999089631971 0.0 0.0 0.0 16.28999089631971 0.0 0.0 0.0 34.3005442915855" Properties=species:S:1:pos:R:3:initial_magmoms:R:1 pbc="T T T"
Si      -1.35016407       1.34309421      -1.43235723       0.00000000
Si       1.36026387      -1.38823380      -1.43276884       0.00000000
Si      -1.70406432      -0.89564049       1.48535160       0.00000000
Si       1.56369339       1.32695082       1.36173237       0.00000000
Si      -2.57763186      -2.68069869       0.02953279       0.00000000
Si       2.64137463      -2.72108160       0.07295730       0.00000000
Si      -2.81787678       2.58470172       0.05666453       0.00000000
Si       0.00843822       2.68745904      -2.80705521       0.00000000
Si      -2.70519885      -0.02388114      -2.80636920       0.00000000
Si       2.72398122      -0.02428839      -2.80499718       0.00000000
