10
Lattice="16.28999089631971 0.0 0.0 0.0 16.28999089631971 0.0 0.0 0.0 34.3005442915855" Properties=species:S:1:pos:R:3:initial_magmoms:R:1 pbc="T T T"
Si       1.09907001      -1.49504733       1.47247174       0.00000000
Si      -0.72544257      -1.91400984      -1.38169671       0.00000000
Si      -1.60761123       1.21708398       1.46822533       0.00000000
Si       1.98557181       0.78521058      -1.30877371       0.00000000
Si      -2.66598882      -2.60514567       0.08094247       0.00000000
Si       2.60933220       2.68856091       0.04064617       0.00000000
Si       2.44581318      -0.13409928       2.84483385       0.00000000
Si      -0.60093810      -0.95459400      -3.62426755       0.00000000
Si       2.45599443      -2.90776500       0.05903813       0.00000000
Si      -0.26608086       2.57531609       2.84040908       0.00000000
