10
Lattice="16.28999089631971 0.0 0.0 0.0 16.28999089631971 0.0 0.0 0.0 34.3005442915855" Properties=species:S:1:pos:R:3:initial_magmoms:R:1 pbc="T T T"
Si       1.35614856       1.35710361       1.35799361       0.00000000
Si       1.35765049      -1.35717040      -1.35717039       0.00000000
Si      -1.35717967       1.35791811      -1.35720470       0.00000000
Si      -1.35817336      -1.35745222       1.35713609       0.00000000
Si      -0.00032041      -2.71246548       2.71506110       0.00000000
Si       0.00109404       2.71399545      -2.71379198       0.00000000
Si      -2.71469053       0.00001629      -2.71320887       0.00000000
Si       0.00044522      -2.71353219      -2.71461519       0.00000000
Si      -2.71495117      -2.71430428      -0.00030871       0.00000000
Si      -2.71472311       2.71502172       0.00024010       0.00000000
