10
Lattice="16.28999089631971 0.0 0.0 0.0 16.28999089631971 0.0 0.0 0.0 34.3005442915855" Properties=species:S:1:pos:R:3:initial_magmoms:R:1 pbc="T T T"
Si       1.82996973       1.34851878      -0.12265881       0.00000000
Si      -1.72449198       0.54310860      -1.52345953       0.00000000
Si       0.47382723      -1.97267013       1.28212076       0.00000000
Si      -0.06366132       2.24197641       1.17561751       0.00000000
Si      -2.33546472       1.73682351       1.87775005       0.00000000
Si       3.26586807       0.26979498       1.30122618       0.00000000
Si      -0.66010338      -0.05072706      -3.51031966       0.00000000
Si      -3.07364607      -1.37977929      -1.20909486       0.00000000
Si      -1.49962482      -2.40054327       2.49028951       0.00000000
Si      -0.18640647       3.70010475      -0.70093201       0.00000000
