10
Lattice="16.28999089631971 0.0 0.0 0.0 16.28999089631971 0.0 0.0 0.0 34.3005442915855" Properties=species:S:1:pos:R:3:initial_magmoms:R:1 pbc="T T T"
Si      -1.35602847      -1.35745357       1.35754770       0.00000000
Si       1.35677781       1.35685206       1.35744480       0.00000000
Si      -1.35731538       1.35669405      -1.35706749       0.00000000
Si       1.35769005      -1.35776308      -1.35686169       0.00000000
Si      -2.71353933      -0.00055624      -2.71344897       0.00000000
Si       0.00026064       2.71432057      -2.71290017       0.00000000
Si      -0.00004887      -2.71356349      -2.71372338       0.00000000
Si       2.71495117       2.71430428       0.00030871       0.00000000
Si      -2.71461447       2.71474411       0.00054881       0.00000000
Si       2.71539639       0.00077209      -2.71430649       0.00000000
