10
Lattice="16.28999089631971 0.0 0.0 0.0 16.28999089631971 0.0 0.0 0.0 34.3005442915855" Properties=species:S:1:pos:R:3:initial_magmoms:R:1 pbc="T T T"
Si      -1.35622395      -1.35725029      -1.35638148       0.00000000
Si       1.35757602       1.35762652      -1.35583267       0.00000000
Si       1.35731538      -1.35669405       1.35706749       0.00000000
Si      -1.35729909       1.35805006       1.35761630       0.00000000
Si      -0.00171045      -2.71409875      -2.71248856       0.00000000
Si      -2.71371852       0.00120709       2.71461519       0.00000000
Si       0.00418653       2.71073908      -2.71763364       0.00000000
Si       2.71409319       0.00015801       2.71451229       0.00000000
Si       0.00128691      -2.71414762       2.71461519       0.00000000
Si       2.71500543      -2.71445713       0.00020580       0.00000000
