10
Lattice="16.28999089631971 0.0 0.0 0.0 16.28999089631971 0.0 0.0 0.0 34.3005442915855" Properties=species:S:1:pos:R:3:initial_magmoms:R:1 pbc="T T T"
Si       1.19306398       1.35353610       1.47718807       0.00000000
Si      -1.34198649       1.37210670      -1.34050032       0.00000000
Si       1.38014649      -1.35482301      -1.35830231       0.00000000
Si      -1.28537874      -1.26157579       1.56705554       0.00000000
Si       2.13622892      -0.51505722       2.62015144       0.00000000
Si      -0.63840510       2.16314910       2.89332113       0.00000000
Si      -2.65186539      -2.55631705       0.04997592       0.00000000
Si       2.58720128       2.69592984       0.05117644       0.00000000
Si       0.35375105      -2.22658236       3.05494538       0.00000000
Si      -2.68376121       0.00410508      -2.71543841       0.00000000
