10
Lattice="16.28999089631971 0.0 0.0 0.0 16.28999089631971 0.0 0.0 0.0 34.3005442915855" Properties=species:S:1:pos:R:3:initial_magmoms:R:1 pbc="T T T"
Si      -1.38432420       1.22462747      -1.40587719       0.00000000
Si      -1.81428246      -1.01688535       1.06585571       0.00000000
Si       1.36648665       1.29474125       1.51707962       0.00000000
Si       1.32528924      -1.50566680      -1.37305156       0.00000000
Si      -2.60928333       2.49953011       0.18275340       0.00000000
Si       2.65186539       2.55631705      -0.04997592       0.00000000
Si      -0.03189582       2.56042213      -2.76541433       0.00000000
Si      -0.93302604      -2.17850896       2.94089601       0.00000000
Si       2.56256361      -2.78104348       0.27574223       0.00000000
Si       2.68482006      -0.15416105      -2.76417951       0.00000000
