10
Lattice="16.28999089631971 0.0 0.0 0.0 16.28999089631971 0.0 0.0 0.0 34.3005442915855" Properties=species:S:1:pos:R:3:initial_magmoms:R:1 pbc="T T T"
Si       1.35348790       1.34281728       1.39258230       0.00000000
Si      -1.36008468      -1.37373570       1.39309680       0.00000000
Si       1.55764233      -1.24237314      -1.40575714       0.00000000
Si      -1.43837442       1.33770222      -1.56154344       0.00000000
Si      -2.71168227       2.68741017       0.01834051       0.00000000
Si       0.21936670      -2.42737290      -2.95564666       0.00000000
Si       2.72454227       2.70101232      -0.00556355       0.00000000
Si      -2.70555723      -2.72657133       0.01729777       0.00000000
Si      -0.00251018       2.70322776       2.75448617       0.00000000
Si       2.71165688      -2.74823703       0.01899908       0.00000000
