10
Lattice="16.28999089631971 0.0 0.0 0.0 16.28999089631971 0.0 0.0 0.0 34.3005442915855" Properties=species:S:1:pos:R:3:initial_magmoms:R:1 pbc="T T T"
Si       1.30691412      -1.38463371       1.38324911       0.00000000
Si      -1.22792391      -1.48519188      -1.38941434       0.00000000
Si      -1.41353217       1.33346682       1.39502450       0.00000000
Si       1.49208255       1.03905765      -1.66899823       0.00000000
Si      -2.05933293       0.29493045      -2.68535822       0.00000000
Si       2.57409693       2.67963984      -0.19559210       0.00000000
Si      -0.07130133       1.45388250      -3.45924754       0.00000000
Si       2.81463507      -2.56834656      -0.16381263       0.00000000
Si       2.65238667      -0.03179808       2.75904814       0.00000000
Si      -2.72590344       2.71518462       0.00658228       0.00000000
