10
Lattice="16.28999089631971 0.0 0.0 0.0 16.28999089631971 0.0 0.0 0.0 34.3005442915855" Properties=species:S:1:pos:R:3:initial_magmoms:R:1 pbc="T T T"
Si       1.35827371       1.35607734      -1.35658728       0.00000000
Si      -1.35751086      -1.35790182      -1.35600418       0.00000000
Si      -1.35754344       1.35710361       1.35744480       0.00000000
Si       1.35717967      -1.35791811       1.35720470       0.00000000
Si       2.71352045       0.00167787      -2.71245426       0.00000000
Si       0.00074934       2.71283886       2.71454659       0.00000000
Si      -2.71396287      -0.00004887       2.71437509       0.00000000
Si       2.71332823      -0.00081450       2.71519830       0.00000000
Si      -2.71090035      -0.00478926      -2.71780515       0.00000000
Si       2.71486275       2.71433754       0.00010290       0.00000000
