10
Lattice="16.28999089631971 0.0 0.0 0.0 16.28999089631971 0.0 0.0 0.0 34.3005442915855" Properties=species:S:1:pos:R:3:initial_magmoms:R:1 pbc="T T T"
Si       1.35423657      -1.35182565       1.35631288       0.00000000
Si      -1.35829278      -1.35573525      -1.35710179       0.00000000
Si       1.35642378       1.35948195      -1.35737620       0.00000000
Si      -1.36019871       1.36065483       1.36279569       0.00000000
Si       2.69259432       0.00138465       2.70974451       0.00000000
Si       2.71257889      -2.71365336       0.00065171       0.00000000
Si      -0.00074934      -2.71283886      -2.71454659       0.00000000
Si      -2.71471221      -2.71288773      -0.00017150       0.00000000
Si       2.71411341       0.00149868      -2.71444369       0.00000000
Si      -2.71564074       0.00188964      -2.71461519       0.00000000
