10
Lattice="16.28999089631971 0.0 0.0 0.0 16.28999089631971 0.0 0.0 0.0 34.3005442915855" Properties=species:S:1:pos:R:3:initial_magmoms:R:1 pbc="T T T"
Si       1.34014965      -1.34183988      -1.41692198       0.00000000
Si      -1.35242838       1.39294161      -1.38505675       0.00000000
Si       1.68647831       1.08962181       1.32101760       0.00000000
Si      -1.40185224      -1.27428525       1.59051713       0.00000000
Si       3.41116577      -0.74055969       1.23862765       0.00000000
Si       2.55791186      -2.72003904      -0.00356726       0.00000000
Si       0.00179190      -2.69505018      -2.77035361       0.00000000
Si      -2.71264338       0.01743030      -2.76387080       0.00000000
Si      -2.79524997      -2.67936291       0.11408367       0.00000000
Si       2.72279924       0.01526373      -2.76476262       0.00000000
