10
Lattice="16.28999089631971 0.0 0.0 0.0 16.28999089631971 0.0 0.0 0.0 34.3005442915855" Properties=species:S:1:pos:R:3:initial_magmoms:R:1 pbc="T T T"
Si      -0.50308407       2.12538888       0.71393193       0.00000000
Si      -2.16870236      -0.71117253      -0.57782729       0.00000000
Si       0.72971055      -1.63290960       1.59315827       0.00000000
Si       1.46437326       0.61952499      -1.82118842       0.00000000
Si       2.12258700      -1.65956004      -1.97392883       0.00000000
Si       2.64857481      -2.17764720       0.30723015       0.00000000
Si      -1.58701090      -2.65119750      -1.72686187       0.00000000
Si      -0.96871743       3.20857614      -1.43033350       0.00000000
Si       0.08402382      -1.90079865      -3.15331940       0.00000000
Si      -2.15060743       1.87813926       2.42813689       0.00000000
