10
Lattice="16.28999089631971 0.0 0.0 0.0 16.28999089631971 0.0 0.0 0.0 34.3005442915855" Properties=species:S:1:pos:R:3:initial_magmoms:R:1 pbc="T T T"
Si       1.12539465      -0.42858990      -2.00579405       0.00000000
Si       0.57738276       2.25388440       0.50953487       0.00000000
Si      -2.38091382      -0.11157021      -0.31786332       0.00000000
Si       0.25599735      -1.94650839       1.43811972       0.00000000
Si      -1.19707065      -0.98386713       3.11895024       0.00000000
Si      -0.63074880      -1.07018784      -3.45729099       0.00000000
Si      -3.11534847      -0.89381601       1.81909608       0.00000000
Si      -2.60420085      -1.49806098      -2.24912225       0.00000000
Si      -3.02298417       2.13760638      -0.61641543       0.00000000
Si       1.28094786       2.29864932       2.70682897       0.00000000
