10
Lattice="16.28999089631971 0.0 0.0 0.0 16.28999089631971 0.0 0.0 0.0 34.3005442915855" Properties=species:S:1:pos:R:3:initial_magmoms:R:1 pbc="T T T"
Si       1.35676089       1.35755973      -1.35806221       0.00000000
Si      -1.35835794      -1.35718506      -1.35771920       0.00000000
Si       1.35866129      -1.35969372       1.35850812       0.00000000
Si      -1.36164852       1.35892809       1.36025745       0.00000000
Si       2.71385928      -2.71388142      -0.00168073       0.00000000
Si      -2.71453302       2.71565703      -0.00123482       0.00000000
Si       2.71410363       0.00027693      -2.71609012       0.00000000
Si      -0.00060273      -2.71502172      -2.71585001       0.00000000
Si      -2.71603170      -2.71484253      -0.00113192       0.00000000
Si      -0.00081450       2.71534752      -2.71564421       0.00000000
