10
Lattice="16.28999089631971 0.0 0.0 0.0 16.28999089631971 0.0 0.0 0.0 34.3005442915855" Properties=species:S:1:pos:R:3:initial_magmoms:R:1 pbc="T T T"
Si      -1.23727437       1.27537668      -1.64879378       0.00000000
Si       1.48570243       1.38675141       1.33552674       0.00000000
Si      -1.66397463      -0.97806789       1.74754511       0.00000000
Si       1.46906219      -1.43874909      -1.64213948       0.00000000
Si      -2.45781891      -2.60640000      -0.18306211       0.00000000
Si       2.69991179       2.50110144      -0.36718753       0.00000000
Si      -2.56256361       2.78104348      -0.27574223       0.00000000
Si      -2.59551828      -0.08913888      -3.03625158       0.00000000
Si       0.12225645       2.62688243      -3.03992174       0.00000000
Si       3.27185369       0.15920217       2.38649600       0.00000000
