10
Lattice="16.28999089631971 0.0 0.0 0.0 16.28999089631971 0.0 0.0 0.0 34.3005442915855" Properties=species:S:1:pos:R:3:initial_magmoms:R:1 pbc="T T T"
Si       0.09216882      -1.56949263       1.74706490       0.00000000
Si      -1.92420738       0.78209334       1.16879170       0.00000000
Si       1.77474663       1.60199185      -0.05762495       0.00000000
Si      -0.39757374      -1.72929753      -2.01834806       0.00000000
Si      -1.80146223      -0.67603500       3.04534123       0.00000000
Si      -1.73780091      -2.91801141       1.86972371       0.00000000
Si       2.69467551       1.96534682       2.12618903       0.00000000
Si      -3.95338752      -0.02552643       0.27505622       0.00000000
Si       0.88772355       3.34136312      -1.94165200       0.00000000
Si      -2.05553736       3.03074540       1.84252337       0.00000000
