10
Lattice="16.28999089631971 0.0 0.0 0.0 16.28999089631971 0.0 0.0 0.0 34.3005442915855" Properties=species:S:1:pos:R:3:initial_magmoms:R:1 pbc="T T T"
Si       1.21479417      -1.06701129      -1.71310734       0.00000000
Si      -1.16556579       1.90721595      -0.76490257       0.00000000
Si       0.90995940       1.39754421       1.70322878       0.00000000
Si      -1.77127686      -1.31950629       0.94285389       0.00000000
Si      -1.06771176      -1.27474137       3.14014798       0.00000000
Si      -0.84304008       1.07868049       3.36265574       0.00000000
Si      -3.24241047       1.12072009      -1.36842098       0.00000000
Si       2.17682197      -2.95738434      -0.72260997       0.00000000
Si      -3.72558816      -0.03486060       0.58976389       0.00000000
Si       1.85345895       3.30440111       0.56997246       0.00000000
