10
Lattice="16.28999089631971 0.0 0.0 0.0 16.28999089631971 0.0 0.0 0.0 34.3005442915855" Properties=species:S:1:pos:R:3:initial_magmoms:R:1 pbc="T T T"
Si      -0.24290833      -1.38961845      -1.84073974       0.00000000
Si       1.23339735       1.94702967      -0.34695020       0.00000000
Si       0.84648379      -1.18286577       1.83298781       0.00000000
Si      -2.32178831      -0.22302639       0.26291382       0.00000000
Si      -0.49135201       0.06610482       3.34553976       0.00000000
Si       3.26456487       0.77434515      -0.74168108       0.00000000
Si       0.67533942      -3.32286678       0.73945155       0.00000000
Si      -2.86002620       1.96455771      -0.26939663       0.00000000
Si      -1.18640789      -3.29647535      -0.70748342       0.00000000
Si      -1.17805112       0.07775217      -3.39836263       0.00000000
