10
Lattice="16.28999089631971 0.0 0.0 0.0 16.28999089631971 0.0 0.0 0.0 34.3005442915855" Properties=species:S:1:pos:R:3:initial_magmoms:R:1 pbc="T T T"
Si      -1.35519799       1.35418770       1.36018884       0.00000000
Si       1.35840355       1.35609363      -1.35717039       0.00000000
Si      -1.35741922      -1.35845568      -1.35682739       0.00000000
Si       1.36140091      -1.35944937       1.36245268       0.00000000
Si      -0.02124868      -2.71655298       2.71029332       0.00000000
Si      -2.71385928       2.71388142       0.00168073       0.00000000
Si       2.71557232       2.71261080      -0.00030871       0.00000000
Si       0.00024435       2.71415835      -2.71440939       0.00000000
Si      -2.71446201      -0.00114030      -2.71416929       0.00000000
Si       2.71571893      -0.00130320      -2.71434079       0.00000000
