10
Lattice="16.28999089631971 0.0 0.0 0.0 16.28999089631971 0.0 0.0 0.0 34.3005442915855" Properties=species:S:1:pos:R:3:initial_magmoms:R:1 pbc="T T T"
Si       1.35452979      -1.35664749      -1.36231548       0.00000000
Si       1.37077092       1.36273995       1.34698313       0.00000000
Si      -1.36140091       1.35944937      -1.36245268       0.00000000
Si      -1.38264959      -1.35710361       1.34784064       0.00000000
Si       2.61695592      -0.05413167       2.74860705       0.00000000
Si       2.71272483      -2.71280628      -0.00377306       0.00000000
Si       2.70953199       2.71630863      -0.00576249       0.00000000
Si       2.71135647       0.00136836      -2.71876556       0.00000000
Si      -2.71659890       2.71363707      -0.00226384       0.00000000
Si      -2.72100734      -2.71031391      -0.00559099       0.00000000
