10
Lattice="16.28999089631971 0.0 0.0 0.0 16.28999089631971 0.0 0.0 0.0 34.3005442915855" Properties=species:S:1:pos:R:3:initial_magmoms:R:1 pbc="T T T"
Si       1.29015171      -1.34576577      -1.39716485       0.00000000
Si      -1.11694014      -1.63414764       1.34163224       0.00000000
Si      -1.45294745       1.37414295      -1.35055039       0.00000000
Si       1.61111358       1.34640108       1.40820963       0.00000000
Si       0.60774732      -3.46432914       1.25924229       0.00000000
Si       2.53633671      -2.76263739       0.00445907       0.00000000
Si       2.62891278       0.00780291      -2.74991047       0.00000000
Si      -1.78783076      -0.45372537       3.33706752       0.00000000
Si      -0.08061921      -2.70850572      -2.74414798       0.00000000
Si      -0.08298126       2.71948518      -2.74744083       0.00000000
