10
Lattice="16.28999089631971 0.0 0.0 0.0 16.28999089631971 0.0 0.0 0.0 34.3005442915855" Properties=species:S:1:pos:R:3:initial_magmoms:R:1 pbc="T T T"
Si      -0.68189940       1.27119015      -1.85490587       0.00000000
Si      -1.34061976       0.99896796       1.69568266       0.00000000
Si      -0.62986914      -2.29433247       0.41009754       0.00000000
Si       2.34245313       0.61408413       0.34345154       0.00000000
Si       1.23597117      -2.59294446       1.81672934       0.00000000
Si       2.04224472       1.38895056       2.52393836       0.00000000
Si      -2.50775737      -0.04935870      -2.61253672       0.00000000
Si       0.09198963       2.64393216       2.54674824       0.00000000
Si       1.07487936       1.16056476      -3.38203556       0.00000000
Si       0.86400531      -0.91062729       3.60392590       0.00000000
