10
Lattice="16.28999089631971 0.0 0.0 0.0 16.28999089631971 0.0 0.0 0.0 34.3005442915855" Properties=species:S:1:pos:R:3:initial_magmoms:R:1 pbc="T T T"
Si       1.23046352      -1.48143608       1.31683293       0.00000000
Si      -1.34719182      -1.35565509      -1.35590127       0.00000000
Si       1.37078558       1.35485559      -1.35411764       0.00000000
Si      -1.38014649       1.35482301       1.35830231       0.00000000
Si       2.54149901      -0.11210126       2.73149107       0.00000000
Si      -2.70672264      -2.70716084       0.03522668       0.00000000
Si      -2.70504477      -0.00064183      -2.71382628       0.00000000
Si       0.01193242      -2.71377458      -2.71279726       0.00000000
Si       0.00927715       2.71391400      -2.71296877       0.00000000
Si       2.72551085      -0.00131460      -2.71454659       0.00000000
