10
Lattice="16.28999089631971 0.0 0.0 0.0 16.28999089631971 0.0 0.0 0.0 34.3005442915855" Properties=species:S:1:pos:R:3:initial_magmoms:R:1 pbc="T T T"
Si       1.35044502       1.35845568       1.38674091       0.00000000
Si      -1.36405283      -1.35459495       1.38670661       0.00000000
Si      -1.43994794       1.39331628      -1.33125632       0.00000000
Si       1.31572778      -1.41493311      -1.54481849       0.00000000
Si       2.70560361       2.71039536      -0.00573162       0.00000000
Si       2.72085105      -2.71515204      -0.01167934       0.00000000
Si      -2.71537349      -2.72875419       0.01222472       0.00000000
Si       2.70895935       0.00259011       2.74730706       0.00000000
Si      -0.00620139      -2.71293660       2.74837038       0.00000000
Si      -2.73202187       2.73210752       0.04121899       0.00000000
