10
Lattice="16.28999089631971 0.0 0.0 0.0 16.28999089631971 0.0 0.0 0.0 34.3005442915855" Properties=species:S:1:pos:R:3:initial_magmoms:R:1 pbc="T T T"
Si      -1.35676089      -1.35755973       1.35806221       0.00000000
Si       1.35734275      -1.35728280      -1.35802791       0.00000000
Si      -1.35757539       1.35778779      -1.35758200       0.00000000
Si       1.35848956       1.35927018       1.35775350       0.00000000
Si       0.00104168      -2.71415835      -2.71516400       0.00000000
Si      -2.71531431       0.00198738      -2.71444369       0.00000000
Si      -2.71511883      -2.71474479       0.00034301       0.00000000
Si       2.71502954       2.71528845      -0.00041161       0.00000000
Si      -2.71526544       2.71555087      -0.00072031       0.00000000
Si       2.71550195      -2.71534752      -0.00078891       0.00000000
