10
Lattice="16.28999089631971 0.0 0.0 0.0 16.28999089631971 0.0 0.0 0.0 34.3005442915855" Properties=species:S:1:pos:R:3:initial_magmoms:R:1 pbc="T T T"
Si       1.78515594      -0.64312920       1.38673748       0.00000000
Si      -0.13367737       2.34248571      -0.31837783       0.00000000
Si      -2.12231726      -0.98127702       0.42937445       0.00000000
Si       0.89927316      -0.98119557      -1.98541951       0.00000000
Si      -0.96866367       3.17382957       1.73876416       0.00000000
Si       1.16525628      -0.56148372       3.59565947       0.00000000
Si       2.37280140      -2.85975837       0.92405718       0.00000000
Si      -2.90267342      -1.51612659      -2.03570414       0.00000000
Si       3.75901524       0.54110493       0.77944600       0.00000000
Si      -1.73090114      -2.99089287       1.76215715       0.00000000
