10
Lattice="16.290000149 0.0 0.0 0.0 16.290000149 0.0 0.0 0.0 29.1751946751" Properties=species:S:1:pos:R:3:initial_magmoms:R:1 pbc="T T T"
Si      -1.33503067      -1.36396008       1.36942529       0.00000000
Si       1.35014779      -1.34961348      -1.37313054       0.00000000
Si       1.36023130       1.34565175       1.36782065       0.00000000
Si      -1.36901161       1.34447887      -1.36391118       0.00000000
Si      -2.69680952      -2.70648578      -0.00813988       0.00000000
Si       2.71381628       2.69293250      -0.00662277       0.00000000
Si      -0.00993690       2.73289188       2.67860380       0.00000000
Si       2.72435591      -2.69570180      -0.03573961       0.00000000
Si      -2.76030795      -0.00174303       2.66783815       0.00000000
Si      -0.01951542       2.70938540      -2.72073278       0.00000000
