10
Lattice="16.290000149 0.0 0.0 0.0 16.290000149 0.0 0.0 0.0 29.1751946751" Properties=species:S:1:pos:R:3:initial_magmoms:R:1 pbc="T T T"
H        0.45108639       1.29239974      -0.64200016       0.00000000
Si      -0.81940330       1.00768312       1.93583252       0.00000000
Si      -1.88778296      -0.68145958      -1.27848621       0.00000000
Si       2.02349495      -1.37898109      -0.13764857       0.00000000
H        0.95407273      -0.22590972      -2.48733122       0.00000000
H       -0.68432662      -2.65595420      -1.08105766       0.00000000
Si       3.16144268       0.71822611      -0.66942484       0.00000000
Si      -2.32373594       2.32327982       0.64649314       0.00000000
Si       0.76038463      -2.94521574      -1.51381333       0.00000000
H        2.51309416      -0.42275808       2.30790377       0.00000000
