10
Lattice="16.290000149 0.0 0.0 0.0 16.290000149 0.0 0.0 0.0 29.1751946751" Properties=species:S:1:pos:R:3:initial_magmoms:R:1 pbc="T T T"
Si       1.34426710       1.35527263      -1.36586591       0.00000000
Si      -1.35689185      -1.36269761      -1.35014048       0.00000000
Si       1.38968362      -1.34839499       1.33321887       0.00000000
Si      -1.38434050       1.35468619       1.33464846       0.00000000
Si       0.02601513      -2.69849391       2.68303843       0.00000000
Si      -0.02880072       2.72280185       2.67203938       0.00000000
Si      -2.70252731      -0.00006353      -2.70416127       0.00000000
Si       2.70410744      -0.00226757      -2.70526993       0.00000000
Si       2.71748153       2.70256967      -0.02255243       0.00000000
Si       2.70979265      -2.71682016      -0.05044391       0.00000000
