10
Lattice="16.290000149 0.0 0.0 0.0 16.290000149 0.0 0.0 0.0 29.1751946751" Properties=species:S:1:pos:R:3:initial_magmoms:R:1 pbc="T T T"
Si       1.14873823       0.12466737      -2.06026472       0.00000000
Si       1.56214585       0.77802670       1.59410346       0.00000000
Si      -0.91121374      -1.84135646       1.16881665       0.00000000
Si      -1.93290626       1.48905262      -0.31690096       0.00000000
Si      -1.94693195      -0.35618085       2.64000502       0.00000000
H       -2.83076220       0.49300056       1.74879034       0.00000000
Si      -0.05219316       0.94988620       3.27293169       0.00000000
H        1.86360860      -2.87223654      -0.11967665       0.00000000
Si       2.39743190       2.70599383       0.57174629       0.00000000
Si       2.67770135       1.96885829      -1.63521131       0.00000000
