10
Lattice="16.290000149 0.0 0.0 0.0 16.290000149 0.0 0.0 0.0 29.1751946751" Properties=species:S:1:pos:R:3:initial_magmoms:R:1 pbc="T T T"
Si      -1.38092612       1.45029057      -1.15624214       0.00000000
Si       1.52682913      -1.26439723      -1.21470923       0.00000000
Si       0.84683566       1.66327255       1.39413668       0.00000000
Si      -0.92043388      -1.73159444       1.27857373       0.00000000
H        0.23304474       2.96929236       0.95496247       0.00000000
Si       2.56015271      -2.09003960       0.73819078       0.00000000
Si       0.11389968      -2.65988009      -2.51215931       0.00000000
Si      -2.61246481       0.08868178      -2.60050180       0.00000000
Si       0.09298332       1.08104839       3.54805377       0.00000000
Si       0.73200745      -3.38517606       1.37549373       0.00000000
