10
Lattice="16.290000149 0.0 0.0 0.0 16.290000149 0.0 0.0 0.0 29.1751946751" Properties=species:S:1:pos:R:3:initial_magmoms:R:1 pbc="T T T"
Si      -1.52091586       1.31714751       1.19688319       0.00000000
Si       1.41275026       1.28404623      -1.38156217       0.00000000
Si      -1.22945518      -1.43312580      -1.42684207       0.00000000
Si       0.98199379      -0.86098678       1.98674323       0.00000000
Si      -0.08123823       2.64724231       2.40704109       0.00000000
Si      -0.76484809      -1.18335122       3.47920032       0.00000000
Si       1.09926550      -3.16623520       1.75182456       0.00000000
Si      -2.68265351      -0.12308073       2.69987252       0.00000000
Si      -2.57294036      -2.81187883      -0.11375408       0.00000000
Si       0.06524145       2.61741532      -2.78894438       0.00000000
