10
Lattice="16.290000149 0.0 0.0 0.0 16.290000149 0.0 0.0 0.0 29.1751946751" Properties=species:S:1:pos:R:3:initial_magmoms:R:1 pbc="T T T"
Si      -1.25880976      -1.36819711       1.42614187       0.00000000
Si      -1.45222093       1.41716485      -1.21666397       0.00000000
Si       0.95900860      -1.26990325      -1.75372095       0.00000000
Si       1.38896686       1.37916028       1.34155131       0.00000000
Si       2.35165700       0.16656525      -2.92933542       0.00000000
Si      -2.68765454       0.01065366       2.71596847       0.00000000
Si      -2.06783633      -3.22791240       0.24440119       0.00000000
Si       2.73755082       0.01703934       2.71850963       0.00000000
Si       0.02660157       2.72714150       2.73338023       0.00000000
Si      -0.18836127       2.90071146      -2.54331842       0.00000000
