10
Lattice="16.290000149 0.0 0.0 0.0 16.290000149 0.0 0.0 0.0 29.1751946751" Properties=species:S:1:pos:R:3:initial_magmoms:R:1 pbc="T T T"
Si       0.34637427      -0.88208722      -2.13556590       0.00000000
Si      -1.82114057       1.45933966       0.16303099       0.00000000
Si       1.62080614       1.68767660       0.06949531       0.00000000
Si       0.22794597      -1.51369939       1.83751211       0.00000000
H       -0.89928946      -1.45370332       2.84647787       0.00000000
Si       1.06043014       2.72354141       2.07864510       0.00000000
Si       2.29074869      -0.81948475       2.73841295       0.00000000
Si       1.40180338       0.88052338      -3.31748221       0.00000000
Si      -3.64928583       0.16420320       0.80033394       0.00000000
H       -1.81817579       0.32272119       3.28649815       0.00000000
