10
Lattice="16.290000149 0.0 0.0 0.0 16.290000149 0.0 0.0 0.0 29.1751946751" Properties=species:S:1:pos:R:3:initial_magmoms:R:1 pbc="T T T"
Si      -0.93415657       0.81072887       1.99584589       0.00000000
Si       1.35864466       1.38672699      -1.33648649       0.00000000
Si      -1.87187414      -0.89457676      -1.12088180       0.00000000
Si       1.84035625      -1.17078675       0.93666963       0.00000000
H        2.64351842       1.43263221      -0.52214846       0.00000000
H       -2.91301692       0.22440290      -1.10150947       0.00000000
Si       0.52323969      -2.59709029       2.28260888       0.00000000
Si       1.96365526      -0.12577183      -3.09510888       0.00000000
Si       0.39572646       2.78486512       2.48957771       0.00000000
Si      -0.64723396      -1.00734250       3.57075208       0.00000000
