10
Lattice="16.290000149 0.0 0.0 0.0 16.290000149 0.0 0.0 0.0 29.1751946751" Properties=species:S:1:pos:R:3:initial_magmoms:R:1 pbc="T T T"
Si      -1.37023336       1.34245891      -1.35705501       0.00000000
Si      -1.33136705      -1.39774717       1.34197143       0.00000000
Si       1.29865510      -1.35791812      -1.41744766       0.00000000
Si       1.35668008       1.38157120       1.35057811       0.00000000
Si       2.77607667       0.00910611       2.60417788       0.00000000
Si      -2.73554715      -0.07913682       2.65555539       0.00000000
Si       2.60929964      -2.78510133      -0.12055190       0.00000000
Si      -0.01014867       2.69285105      -2.71057981       0.00000000
Si      -2.70883868       2.70542693       0.01569625       0.00000000
Si       0.03891681      -2.63661797       2.78658119       0.00000000
