10
Lattice="16.290000149 0.0 0.0 0.0 16.290000149 0.0 0.0 0.0 29.1751946751" Properties=species:S:1:pos:R:3:initial_magmoms:R:1 pbc="T T T"
H       -1.16209603      -0.24558804      -1.14165454       0.00000000
Si      -1.52048890       1.19363347       1.33450258       0.00000000
Si       1.17877373       1.62878824      -1.25208265       0.00000000
Si       1.29609431      -1.56178747       1.24262989       0.00000000
Si      -1.18973527      -1.94932658      -1.37552290       0.00000000
Si       2.47278618      -0.08205273       2.69842543       0.00000000
Si       2.32780518      -2.78192478      -0.59123532       0.00000000
Si      -2.90187130       2.32041278      -0.17344653       0.00000000
Si      -0.27633216       2.65852802       2.71697210       0.00000000
Si      -0.18686259      -2.73896805       2.69250578       0.00000000
