10
Lattice="16.290000149 0.0 0.0 0.0 16.290000149 0.0 0.0 0.0 29.1751946751" Properties=species:S:1:pos:R:3:initial_magmoms:R:1 pbc="T T T"
Si       1.36374994      -1.34022718       1.36253994       0.00000000
Si       1.35485560       1.37264428      -1.34450967       0.00000000
Si      -1.35482302       1.35316144       1.36501983       0.00000000
Si      -1.33845157      -1.40393737      -1.33590299       0.00000000
Si       2.70754463      -2.67160889      -0.02401119       0.00000000
Si      -2.76845295      -0.08478945      -2.62252907       0.00000000
Si       0.01195686      -2.73173529       2.68966120       0.00000000
Si      -2.72306900       2.70081686       0.02196892       0.00000000
Si       0.01045818       2.71559189      -2.71399331       0.00000000
Si       2.71388144       2.72020196       0.02150212       0.00000000
