10
Lattice="16.290000149 0.0 0.0 0.0 16.290000149 0.0 0.0 0.0 29.1751946751" Properties=species:S:1:pos:R:3:initial_magmoms:R:1 pbc="T T T"
H       -0.60359338      -0.09412362      -1.39830873       0.00000000
Si      -1.71592346       0.44567811       1.52399547       0.00000000
Si       0.48132063      -2.02975031       1.05655050       0.00000000
H        1.51187491      -0.84758500      -1.70680724       0.00000000
Si       1.89918596       1.49882662       0.31908910       0.00000000
Si       0.79576651      -0.92997982      -3.03296571       0.00000000
Si      -2.55692729       2.28854954       0.39727863       0.00000000
Si      -0.33747993       1.46970010       3.15684359       0.00000000
Si       2.07374960      -1.21736800       2.61978661       0.00000000
Si       0.92637973       2.95324671       1.83018914       0.00000000
