10
Lattice="16.290000149 0.0 0.0 0.0 16.290000149 0.0 0.0 0.0 29.1751946751" Properties=species:S:1:pos:R:3:initial_magmoms:R:1 pbc="T T T"
Si       0.61486606       0.51377031      -2.18207116       0.00000000
Si      -2.30117429      -0.05698242       0.45037748       0.00000000
Si       0.77121748       2.04493259       0.87957377       0.00000000
Si       1.22057713      -1.87188229       0.95154897       0.00000000
Si       1.69771124       1.00193275       2.71434341       0.00000000
Si       3.03055905      -0.54459100       1.55649664       0.00000000
Si       1.30212487      -1.53640603      -2.94786167       0.00000000
Si      -0.24110829      -0.02772558       3.61574023       0.00000000
Si      -2.44512902       0.35142417       2.81000888       0.00000000
Si      -3.16503300       2.02129580      -0.34339204       0.00000000
