10
Lattice="16.290000149 0.0 0.0 0.0 16.290000149 0.0 0.0 0.0 29.1751946751" Properties=species:S:1:pos:R:3:initial_magmoms:R:1 pbc="T T T"
Si       1.52906086      -1.28125738      -1.18921011       0.00000000
Si       1.38572515       1.31820310       1.37682995       0.00000000
Si      -1.21819879      -1.44226774       1.43785571       0.00000000
Si      -1.47172006       1.20194137      -1.45908066       0.00000000
H        0.34031439      -1.79952374      -2.25174152       0.00000000
Si      -2.67516011       2.67108761      -0.02829994       0.00000000
Si       2.83412461       2.53159634      -0.01467512       0.00000000
Si      -2.65341296      -0.07459191       2.72381951       0.00000000
Si      -0.13997997       2.52281603      -2.86290350       0.00000000
Si       0.05058045       2.75519289       2.68611058       0.00000000
