10
Lattice="16.290000149 0.0 0.0 0.0 16.290000149 0.0 0.0 0.0 29.1751946751" Properties=species:S:1:pos:R:3:initial_magmoms:R:1 pbc="T T T"
H       -0.91339660      -0.07087779       1.21304624       0.00000000
Si      -0.89000416       1.42184008      -1.59112759       0.00000000
Si       0.34031439      -2.12118608      -0.93135974       0.00000000
Si       1.88538833       1.34298019       0.38870112       0.00000000
H        0.98753239       0.34692813       2.45439243       0.00000000
H       -2.17471502      -1.82873171       0.78962664       0.00000000
Si       0.27165204       2.87308525       1.46582013       0.00000000
Si      -0.32962815       0.38597526      -3.60027737       0.00000000
Si      -1.72248833      -2.81540073      -1.83226058       0.00000000
Si       1.56493144      -3.44466714       0.58408740       0.00000000
