10
Lattice="16.290000149 0.0 0.0 0.0 16.290000149 0.0 0.0 0.0 29.1751946751" Properties=species:S:1:pos:R:3:initial_magmoms:R:1 pbc="T T T"
Si       0.81940330      -1.00768312      -1.93583252       0.00000000
Si      -1.33174009      -1.32087466       1.40382284       0.00000000
Si       1.59272218       1.13555962       1.34027927       0.00000000
Si      -1.50433264       1.31559670      -1.28933938       0.00000000
H        1.27048969       0.28471662      -2.57783268       0.00000000
H        0.68802445       1.87468580       2.31438067       0.00000000
H        3.33249746      -1.43044120       0.37207126       0.00000000
Si      -1.06837966      -1.68914270      -3.21431872       0.00000000
Si      -2.54005085       2.80077231       0.18184899       0.00000000
Si      -2.89932681      -2.44788203      -0.06112203       0.00000000
