10
Lattice="16.290000149 0.0 0.0 0.0 16.290000149 0.0 0.0 0.0 29.1751946751" Properties=species:S:1:pos:R:3:initial_magmoms:R:1 pbc="T T T"
Si      -1.14873823      -0.12466737       2.06026472       0.00000000
Si      -1.52728525       0.99616609      -1.50517747       0.00000000
Si       0.99919603      -1.76663423      -1.26704953       0.00000000
Si       1.52896312       1.84419092       0.42505341       0.00000000
H       -2.05227938      -2.80065828      -0.90778618       0.00000000
Si       2.29921949      -0.46977102      -2.76376619       0.00000000
H        0.71487037      -2.99690391       1.94058807       0.00000000
Si      -2.55705761       2.61930007      -0.18747980       0.00000000
Si      -0.23703579       2.43414484      -2.78643532       0.00000000
Si       0.41340762       0.65335933       3.65436818       0.00000000
