10
Lattice="16.290000149 0.0 0.0 0.0 16.290000149 0.0 0.0 0.0 29.1751946751" Properties=species:S:1:pos:R:3:initial_magmoms:R:1 pbc="T T T"
Si      -0.55629699      -0.86307679      -2.10078907       0.00000000
Si       2.02636199       1.06116319       0.71543412       0.00000000
Si      -0.72412309      -1.71967016       1.51699342       0.00000000
Si      -1.49117847       1.89376139      -0.06885346       0.00000000
H        1.38714238       1.64719595      -2.34577318       0.00000000
H        2.81984790      -0.39742713      -1.92352058       0.00000000
Si      -1.98593021      -0.28230570       2.83202739       0.00000000
Si       0.20680155       1.28135512      -3.25571832       0.00000000
Si       0.99465112       2.28130049       2.54929934       0.00000000
Si      -3.12699585       1.22386771       1.46663704       0.00000000
