10
Lattice="16.290000149 0.0 0.0 0.0 16.290000149 0.0 0.0 0.0 29.1751946751" Properties=species:S:1:pos:R:3:initial_magmoms:R:1 pbc="T T T"
Si       1.41679018      -1.34498500       1.25280912       0.00000000
Si      -1.49832163       1.23600539       1.27871669       0.00000000
Si      -1.04345596      -1.85150350      -0.95116094       0.00000000
Si       0.86525965       1.72703486      -1.38386176       0.00000000
H       -2.05412015       0.77977136      -2.05570464       0.00000000
Si      -1.87395275      -0.60751438      -2.66590384       0.00000000
Si      -0.07848522       2.66520855       2.51391858       0.00000000
Si       2.64743453      -2.54762407      -0.34366921       0.00000000
Si      -0.04447170      -2.78006609       2.46904713       0.00000000
Si      -0.83772955       3.39827485      -1.25700159       0.00000000
