10
Lattice="16.290000149 0.0 0.0 0.0 16.290000149 0.0 0.0 0.0 29.1751946751" Properties=species:S:1:pos:R:3:initial_magmoms:R:1 pbc="T T T"
Si       1.33382521       1.34019786      -1.32888344       0.00000000
Si      -1.33082785       1.41858534       1.28653856       0.00000000
Si       1.43363404      -1.34657702       1.26220645       0.00000000
Si      -1.36247932      -1.28207613      -1.40876220       0.00000000
Si       0.05414796      -2.69064865       2.59740923       0.00000000
Si      -2.67913487       0.04470628       2.62398783       0.00000000
Si       0.05488101       2.76881458       2.61132580       0.00000000
Si       2.78045868       0.04118927       2.60143541       0.00000000
Si      -0.04282641      -2.77097464      -2.61712291       0.00000000
Si      -2.71151939      -2.67812164      -0.09840793       0.00000000
