10
Lattice="16.290000149 0.0 0.0 0.0 16.290000149 0.0 0.0 0.0 29.1751946751" Properties=species:S:1:pos:R:3:initial_magmoms:R:1 pbc="T T T"
Si       1.38891636      -1.34925184       1.33012630       0.00000000
Si       1.37560743       1.34804638      -1.35078234       0.00000000
Si      -1.31444949      -1.36607941      -1.39416585       0.00000000
Si      -1.36974629       1.33986880       1.38013258       0.00000000
Si      -2.66230893      -2.71989245      -0.03673157       0.00000000
Si       0.02883167      -2.69964398       2.68365111       0.00000000
Si      -2.70177960       2.70698589       0.00878173       0.00000000
Si       0.02997197       2.71068046      -2.70480312       0.00000000
Si      -2.68316013      -0.00749340      -2.73295719       0.00000000
Si       2.70700544      -2.71217099      -0.06062605       0.00000000
