10
Lattice="16.290000149 0.0 0.0 0.0 16.290000149 0.0 0.0 0.0 29.1751946751" Properties=species:S:1:pos:R:3:initial_magmoms:R:1 pbc="T T T"
Si      -0.34637427       0.88208722       2.13556590       0.00000000
Si      -1.85547989      -0.93126673      -1.10649843       0.00000000
Si       1.05542911       1.76261060      -1.18191631       0.00000000
Si       1.60189345      -1.77658742      -0.08936362       0.00000000
Si       2.13811139       0.34254612      -2.68015008       0.00000000
Si      -0.67207654      -2.38249397      -2.51866538       0.00000000
Si       1.27443187       2.56976381       2.20506121       0.00000000
Si       2.22993812      -2.17948799       2.05895184       0.00000000
Si       3.43313382      -0.95136859      -1.25354141       0.00000000
Si      -3.15794685      -2.16761258       0.39360255       0.00000000
