10
Lattice="16.290000149 0.0 0.0 0.0 16.290000149 0.0 0.0 0.0 29.1751946751" Properties=species:S:1:pos:R:3:initial_magmoms:R:1 pbc="T T T"
H        0.71610841       0.08239482       1.32615847       0.00000000
H       -1.39935988       0.83585620       1.63465698       0.00000000
Si       1.61142310      -0.78802876      -1.52128218       0.00000000
Si      -1.87165586      -1.46336329      -0.16072615       0.00000000
Si      -0.34143840       1.95043430      -1.37091322       0.00000000
H        1.86953816       1.71388721       0.20157142       0.00000000
H        2.51822225       1.28761048       0.23970340       0.00000000
Si      -0.79576651       0.92997982       3.03296571       0.00000000
Si       0.12528639      -1.80154370      -2.99162446       0.00000000
Si      -0.99466741      -3.24412095      -1.44201317       0.00000000
