10
Lattice="16.290000149 0.0 0.0 0.0 16.290000149 0.0 0.0 0.0 29.1751946751" Properties=species:S:1:pos:R:3:initial_magmoms:R:1 pbc="T T T"
Si      -1.41939658       1.37246509      -1.25359976       0.00000000
Si      -1.30246696      -1.23634585       1.50010098       0.00000000
Si       1.18340335      -1.45122724      -1.41216695       0.00000000
Si       1.85547989       0.93126673       1.10649843       0.00000000
Si       3.45737334      -0.84532069       1.01713481       0.00000000
Si      -0.04331511       2.69298137      -2.61704414       0.00000000
Si       2.57843009      -2.73422765      -0.05216525       0.00000000
Si       2.56728773      -0.11565900      -2.75297137       0.00000000
Si       0.14344974      -2.58874166       2.78369285       0.00000000
Si      -2.77607667      -0.00910611      -2.60417788       0.00000000
