10
Lattice="16.290000149 0.0 0.0 0.0 16.290000149 0.0 0.0 0.0 29.1751946751" Properties=species:S:1:pos:R:3:initial_magmoms:R:1 pbc="T T T"
Si       1.21778665      -1.28496336      -1.60594859       0.00000000
Si      -1.28770659       1.34729704      -1.50252253       0.00000000
Si      -1.43938278      -1.42256662       1.34614348       0.00000000
Si       1.31626622       1.70186519       1.13660723       0.00000000
H        2.83175751       0.23403843       0.50525602       0.00000000
H        0.17789820       2.66686850       1.42415795       0.00000000
H       -0.97495488       0.84439216       3.35692707       0.00000000
Si      -2.62956278      -2.57019208      -0.34587193       0.00000000
Si       3.44554843      -1.07198138       0.94443023       0.00000000
Si       2.59871277      -2.73525393      -0.44970645       0.00000000
