10
Lattice="16.290000149 0.0 0.0 0.0 16.290000149 0.0 0.0 0.0 29.1751946751" Properties=species:S:1:pos:R:3:initial_magmoms:R:1 pbc="T T T"
Si       1.37420812      -1.34608832       1.33739092       0.00000000
Si       1.36422235       1.34778900      -1.35022801       0.00000000
Si      -1.35000118      -1.36992059      -1.35119079       0.00000000
Si      -1.35014779       1.34961348       1.37313054       0.00000000
Si       0.01941768      -2.70130231       2.67142670       0.00000000
Si       0.00148239       2.71336342      -2.68616017       0.00000000
Si      -2.73253350      -0.01074488      -2.67349814       0.00000000
Si      -2.71915940       2.69409235       0.00921936       0.00000000
Si       2.72411156       2.69085064       0.01371234       0.00000000
Si       2.72706005      -0.01426190      -2.69605056       0.00000000
