10
Lattice="16.290000149 0.0 0.0 0.0 16.290000149 0.0 0.0 0.0 29.1751946751" Properties=species:S:1:pos:R:3:initial_magmoms:R:1 pbc="T T T"
Si       1.34842105       1.01929789      -1.63354833       0.00000000
Si       1.43391097      -1.62719655       0.92680841       0.00000000
Si      -1.83479159      -1.18591038      -1.00458948       0.00000000
Si      -0.10800270       1.73167589       1.80591538       0.00000000
H       -2.25445457       1.48053295       0.49554068       0.00000000
Si       2.77576716       2.29029257      -0.22984218       0.00000000
Si       0.63045559       0.40832514       3.59715563       0.00000000
Si       2.62409096      -0.47957109       2.61882382       0.00000000
Si      -2.89802361       2.32231871      -0.58429162       0.00000000
Si       0.14366151      -3.06517530       2.20806626       0.00000000
