10
Lattice="16.290000149 0.0 0.0 0.0 16.290000149 0.0 0.0 0.0 29.1751946751" Properties=species:S:1:pos:R:3:initial_magmoms:R:1 pbc="T T T"
Si       1.83151730       1.02366361      -0.94163816       0.00000000
Si       1.40577814      -1.36317979       1.25484846       0.00000000
Si      -1.31965291       1.48889850       1.20836071       0.00000000
Si      -1.30293937      -1.18587943      -1.55295097       0.00000000
Si       1.00102051       2.26765273      -2.65638105       0.00000000
Si      -2.66869298       0.09285300       2.51871498       0.00000000
Si      -2.62345565      -2.59012631      -0.20894691       0.00000000
Si       0.05159043      -2.70528032       2.57003415       0.00000000
Si       2.74331748      -2.51665841      -0.30228711       0.00000000
Si       2.83050156       0.09510102       2.47856991       0.00000000
