10
Lattice="16.290000149 0.0 0.0 0.0 16.290000149 0.0 0.0 0.0 29.1751946751" Properties=species:S:1:pos:R:3:initial_magmoms:R:1 pbc="T T T"
Si      -1.61433901       0.17185950       1.67882823       0.00000000
Si       0.83528605       1.92796713      -1.02235717       0.00000000
Si       1.77259637      -1.15841449       1.02699603       0.00000000
Si      -1.56214585      -0.77802670      -1.59410346       0.00000000
H       -0.20585673       3.04694679      -1.00298484       0.00000000
Si      -2.04698513       2.46180184       1.37558125       0.00000000
Si       0.62369524      -2.79942024       2.20433183       0.00000000
Si       1.11555550       1.19083159      -3.22931477       0.00000000
Si      -2.47335959      -2.61938315      -0.42528681       0.00000000
Si      -0.41340762      -0.65335933      -3.65436818       0.00000000
