10
Lattice="16.290000149 0.0 0.0 0.0 16.290000149 0.0 0.0 0.0 29.1751946751" Properties=species:S:1:pos:R:3:initial_magmoms:R:1 pbc="T T T"
H       -0.61379092       1.30601981      -0.43917421       0.00000000
Si      -0.84683566      -1.66327255      -1.39413668       0.00000000
Si       2.30744594       0.08541010      -0.35725026       0.00000000
Si      -0.75385234      -0.58222415       2.15391710       0.00000000
H        1.40159161       1.65110717      -1.85040755       0.00000000
Si       2.36351612      -1.98100900       0.93124304       0.00000000
Si      -2.22776178      -0.21298198      -2.55037882       0.00000000
Si      -2.12928221       2.77384656       0.19217701       0.00000000
Si       1.31538493      -1.30360075       3.00090217       0.00000000
Si       0.49451553       2.55007083      -2.65826869       0.00000000
