10
Lattice="16.290000149 0.0 0.0 0.0 16.290000149 0.0 0.0 0.0 29.1751946751" Properties=species:S:1:pos:R:3:initial_magmoms:R:1 pbc="T T T"
Si      -1.16709054       0.15947910      -2.02423336       0.00000000
Si       0.23566906       1.87424597       1.42027765       0.00000000
Si       2.31489699      -0.17130564      -0.60299292       0.00000000
Si      -1.13794773      -2.09720720       0.53177627       0.00000000
H       -2.71035629       0.57417364       0.02742468       0.00000000
H       -2.20736995      -0.94413583      -1.81790638       0.00000000
H       -0.64834852      -1.14098419       2.97732862       0.00000000
Si      -3.16144268      -0.71822611       0.66942484       0.00000000
Si       1.69252124       0.73339210       2.86690050       0.00000000
Si       1.88572064      -1.99047512      -2.08176684       0.00000000
