10
Lattice="16.290000149 0.0 0.0 0.0 16.290000149 0.0 0.0 0.0 29.1751946751" Properties=species:S:1:pos:R:3:initial_magmoms:R:1 pbc="T T T"
H       -0.88383025       0.84918142      -0.89121467       0.00000000
Si       1.03571821      -1.48517560      -1.47118837       0.00000000
Si      -1.39592269      -1.22883616       1.42870928       0.00000000
Si       1.89473879       1.30606705       0.63292667       0.00000000
Si       1.94693195       0.35618085      -2.64000502       0.00000000
Si       0.01402569       1.84523348      -2.95690598       0.00000000
H       -2.78475924       0.43137549      -2.13256085       0.00000000
Si       2.14254227       0.79539184       2.93248838       0.00000000
Si       0.00487071      -2.65250072       2.65275458       0.00000000
Si       2.54005085      -2.80077231      -0.18184899       0.00000000
