10
Lattice="16.290000149 0.0 0.0 0.0 16.290000149 0.0 0.0 0.0 29.1751946751" Properties=species:S:1:pos:R:3:initial_magmoms:R:1 pbc="T T T"
Si      -1.34374582      -1.34682300      -1.38792236       0.00000000
Si       1.30824991       1.34687513      -1.42269919       0.00000000
Si       1.42612435      -1.36451394       1.29549534       0.00000000
Si      -1.41861466       1.35508529       1.33654484       0.00000000
Si       0.07934859      -2.65487744       2.66582506       0.00000000
Si      -2.68059120      -2.69742692      -0.01779687       0.00000000
Si       2.60157818       2.78322960      -0.10911523       0.00000000
Si      -0.10612935       2.82286317       2.61640228       0.00000000
Si       2.68089419      -0.04622613       2.76610021       0.00000000
Si       2.73352718      -0.01534192      -2.72111206       0.00000000
