10
Lattice="16.290000149 0.0 0.0 0.0 16.290000149 0.0 0.0 0.0 29.1751946751" Properties=species:S:1:pos:R:3:initial_magmoms:R:1 pbc="T T T"
Si       1.36829485       1.35013150      -1.34933817       0.00000000
Si      -1.34596126      -1.36635634      -1.36674992       0.00000000
Si       1.35164647      -1.31973436       1.40793654       0.00000000
Si      -1.36058968       1.37336104       1.35218275       0.00000000
Si       2.67108761       2.64591956       0.12679540       0.00000000
Si      -2.69952995      -2.68319108       0.03343477       0.00000000
Si       0.08288352      -2.74520712      -2.65657653       0.00000000
Si      -0.00395847       2.76107358      -2.65218566       0.00000000
Si       2.77058694      -2.65031786       0.10546833       0.00000000
Si      -2.71774217       0.02955006       2.72630524       0.00000000
