10
Lattice="16.290000149 0.0 0.0 0.0 16.290000149 0.0 0.0 0.0 29.1751946751" Properties=species:S:1:pos:R:3:initial_magmoms:R:1 pbc="T T T"
H       -0.64868410       0.42627672      -0.03813198       0.00000000
Si       1.98335639       0.62020918       1.08423776       0.00000000
H       -1.80211385      -1.20521566       1.08645507       0.00000000
Si       0.75300526      -0.55102555      -2.49427492       0.00000000
Si       0.20525400       2.16771032       1.71888577       0.00000000
Si      -2.51822225      -1.28761048      -0.23970340       0.00000000
Si      -0.90679915      -2.07563924      -1.76098558       0.00000000
Si       2.61689078       0.29054844      -1.24365102       0.00000000
Si       1.22280886      -1.24919866       2.37010529       0.00000000
Si      -0.73379935       1.24910092      -2.61158838       0.00000000
