10
Lattice="16.290000149 0.0 0.0 0.0 16.290000149 0.0 0.0 0.0 29.1751946751" Properties=species:S:1:pos:R:3:initial_magmoms:R:1 pbc="T T T"
H        0.02763924       1.70373854       0.23386836       0.00000000
Si      -1.63581738      -0.66989368       1.53549050       0.00000000
Si      -0.46195997       0.74751553      -2.21168398       0.00000000
Si       1.49117847      -1.89376139       0.06885346       0.00000000
Si       1.18973527       1.94932658       1.37552290       0.00000000
H       -2.82456385      -1.18816003       0.47295908       0.00000000
Si       0.93488148      -2.75683818      -2.03193561       0.00000000
Si       2.48582959       0.38753910       2.61815279       0.00000000
Si      -0.49475174      -2.17606709       2.90088085       0.00000000
Si       1.69798002      -0.61240627      -3.18686486       0.00000000
