10
Lattice="16.290000149 0.0 0.0 0.0 16.290000149 0.0 0.0 0.0 29.1751946751" Properties=species:S:1:pos:R:3:initial_magmoms:R:1 pbc="T T T"
Si      -0.65348965       0.42187842      -2.13133841       0.00000000
Si      -1.90881335      -0.79175917       1.12128150       0.00000000
Si       0.85771738       1.93771181       1.04054499       0.00000000
Si       1.70298920      -1.67123999      -0.12686017       0.00000000
H       -1.21639060      -2.61850349      -0.79870305       0.00000000
Si       2.17059365       0.67173445       2.51285368       0.00000000
Si      -0.66059209      -2.16226946       2.53571828       0.00000000
Si       3.42751377      -0.72979201       1.14787469       0.00000000
Si       0.83772955      -3.39827485       1.25700159       0.00000000
Si      -2.35603901       2.01844505      -2.14572179       0.00000000
