10
Lattice="16.290000149 0.0 0.0 0.0 16.290000149 0.0 0.0 0.0 29.1751946751" Properties=species:S:1:pos:R:3:initial_magmoms:R:1 pbc="T T T"
Si      -1.36971208       1.36154265      -1.31320469       0.00000000
Si      -1.38717496      -1.35992179       1.30389780       0.00000000
Si       1.32385573      -1.35149986      -1.38453804       0.00000000
Si       1.35624025       1.37132805       1.33785773       0.00000000
Si      -0.00495216      -2.70505226       2.64061769       0.00000000
Si      -0.02526579       2.69193881      -2.66134084       0.00000000
Si       2.67289580       0.04454564      -2.69489231       0.00000000
Si      -2.70475904       0.01089801       2.69298717       0.00000000
Si       2.73877256       0.01215234       2.66016508       0.00000000
Si      -0.00360009       2.72886825       2.67726174       0.00000000
