10
Lattice="16.290000149 0.0 0.0 0.0 16.290000149 0.0 0.0 0.0 29.1751946751" Properties=species:S:1:pos:R:3:initial_magmoms:R:1 pbc="T T T"
Si       1.46897844      -1.29301485       1.27192179       0.00000000
Si      -1.39996261      -1.41673643      -1.25765512       0.00000000
Si      -1.23232222       1.42985965       1.41590137       0.00000000
Si       1.38306988       1.33765825      -1.38097866       0.00000000
Si       0.15688899      -2.62936404       2.63842956       0.00000000
Si      -2.58499496       2.74073225      -0.00980287       0.00000000
Si      -2.66111813      -0.02459138      -2.68808574       0.00000000
Si       0.03002247      -2.69849880      -2.66979289       0.00000000
Si       2.70051713       0.06859393       2.71618145       0.00000000
Si       2.76245008       2.69933936      -0.04740969       0.00000000
