10
Lattice="16.290000149 0.0 0.0 0.0 16.290000149 0.0 0.0 0.0 29.1751946751" Properties=species:S:1:pos:R:3:initial_magmoms:R:1 pbc="T T T"
Si       1.28844290       1.40915017       1.31971076       0.00000000
Si      -1.32268285       1.37402893      -1.33470681       0.00000000
Si       1.40418009      -1.31861035      -1.31358397       0.00000000
Si      -1.31878954      -1.32708115       1.44087534       0.00000000
Si      -2.56028303       2.73991287       0.08338271       0.00000000
Si       0.01260846      -2.69394248      -2.62550494       0.00000000
Si       2.77446396      -2.55748115       0.13102580       0.00000000
Si      -2.71062344       0.01537776      -2.66509568       0.00000000
Si       2.73554715       0.07913682      -2.65555539       0.00000000
Si       2.70516629       0.18608067       2.69820953       0.00000000
