10
Lattice="16.290000149 0.0 0.0 0.0 16.290000149 0.0 0.0 0.0 29.1751946751" Properties=species:S:1:pos:R:3:initial_magmoms:R:1 pbc="T T T"
Si      -1.42965928       1.44383158       1.12143613       0.00000000
Si      -1.35982405      -1.30807072      -1.38958535       0.00000000
Si       1.34947990       1.39106827      -1.34523905       0.00000000
Si       1.33149574      -1.31549896       1.44280090       0.00000000
H       -0.58565809       2.37829115       1.93145624       0.00000000
Si      -2.70161507      -2.64077192      -0.01680491       0.00000000
Si       0.01340667      -2.66708027      -2.71081321       0.00000000
Si       2.71689509      -2.66540240       0.08764228       0.00000000
Si       2.73284300       0.04742019      -2.68125874       0.00000000
Si      -2.72468171       2.73774630      -0.30517254       0.00000000
