10
Lattice="16.290000149 0.0 0.0 0.0 16.290000149 0.0 0.0 0.0 29.1751946751" Properties=species:S:1:pos:R:3:initial_magmoms:R:1 pbc="T T T"
Si       1.32383944       1.33746228       1.33746094       0.00000000
Si      -1.41679018       1.34498500      -1.25280912       0.00000000
Si       1.23064435      -1.20263907      -1.59647832       0.00000000
Si      -1.46126188      -1.43508108       1.21623801       0.00000000
Si      -2.46024614      -0.50651850      -2.20397006       0.00000000
Si      -0.71609212      -2.04778057      -2.65568756       0.00000000
Si       2.62274266       2.62902960      -0.13398416       0.00000000
Si       2.64006950      -0.09464213       2.61761014       0.00000000
Si       2.52920171      -2.72212142      -0.26437103       0.00000000
Si      -0.11886813       2.66924961       2.62000250       0.00000000
