10
Lattice="16.290000149 0.0 0.0 0.0 16.290000149 0.0 0.0 0.0 29.1751946751" Properties=species:S:1:pos:R:3:initial_magmoms:R:1 pbc="T T T"
Si       1.72452458       0.94144798       1.27473486       0.00000000
Si      -0.86525965      -1.72703486       1.38386176       0.00000000
Si       0.73093231      -0.63423487      -2.17909179       0.00000000
Si      -1.70298920       1.67123999       0.12686017       0.00000000
H       -2.91937980      -0.94726351      -0.67184288       0.00000000
Si       0.46760445       2.34297443       2.63971385       0.00000000
Si      -2.36358128      -0.49102947       2.66257845       0.00000000
Si      -0.84501118      -2.31918289      -2.62182537       0.00000000
Si       2.97497757      -1.14771196      -1.90303610       0.00000000
Si      -2.35647884       2.09311841      -2.00447825       0.00000000
