10
Lattice="16.290000149 0.0 0.0 0.0 16.290000149 0.0 0.0 0.0 29.1751946751" Properties=species:S:1:pos:R:3:initial_magmoms:R:1 pbc="T T T"
Si       0.06867864       1.08159085       1.05418731       0.00000000
H        1.15285308       1.82247635      -1.93276912       0.00000000
Si      -2.45806328      -1.37906254      -1.03245179       0.00000000
H       -1.21002121      -2.14842296       1.73501965       0.00000000
Si      -0.46442790      -2.26695877      -2.01078359       0.00000000
Si      -1.54583956       0.41725206       2.62658443       0.00000000
Si       2.26654827       1.26863263       1.70832435       0.00000000
Si      -0.39340350       3.20675169       0.15241122       0.00000000
Si      -3.08237754      -0.30478590       1.01538430       0.00000000
Si       2.29122110       0.85747303      -2.22031984       0.00000000
