10
Lattice="16.290000149 0.0 0.0 0.0 16.290000149 0.0 0.0 0.0 29.1751946751" Properties=species:S:1:pos:R:3:initial_magmoms:R:1 pbc="T T T"
Si      -1.36366849      -1.35009892       1.34981956       0.00000000
Si      -1.38968362       1.34839499      -1.33321887       0.00000000
Si       1.32010903      -1.36842517      -1.38366278       0.00000000
Si       1.36177885       1.34252570       1.37756517       0.00000000
Si      -0.06349842       2.70474275       2.67597803       0.00000000
Si       0.00964368      -2.70236441       2.69526283       0.00000000
Si       2.68918580      -2.71024877      -0.02978787       0.00000000
Si      -0.04541652       2.70366761      -2.69908478       0.00000000
Si       2.69680952       2.70648578       0.00813988       0.00000000
Si       2.69695613      -0.01304829      -2.71618145       0.00000000
