10
Lattice="16.290000149 0.0 0.0 0.0 16.290000149 0.0 0.0 0.0 29.1751946751" Properties=species:S:1:pos:R:3:initial_magmoms:R:1 pbc="T T T"
Si      -0.62804467       0.40290057      -2.14831546       0.00000000
Si       1.48680460      -1.80012647       0.11731346       0.00000000
Si       0.97410943       1.99598114       0.87773573       0.00000000
Si      -2.12586131      -0.58627711       1.00097175       0.00000000
H        0.08511525      -0.82282420       2.57345640       0.00000000
H        0.73379935      -1.24910092       2.61158838       0.00000000
H        2.28887534       1.54121320       1.48393793       0.00000000
H        2.85505059       1.41437926      -0.84934827       0.00000000
Si      -2.34836642       1.54787581       1.91412617       0.00000000
Si      -0.17299980      -3.32474016       0.85060280       0.00000000
