10
Lattice="16.290000149 0.0 0.0 0.0 16.290000149 0.0 0.0 0.0 29.1751946751" Properties=species:S:1:pos:R:3:initial_magmoms:R:1 pbc="T T T"
Si      -1.45704277      -1.29828043       1.30281832       0.00000000
Si       1.37016820      -1.38724012      -1.31078315       0.00000000
Si      -1.36304947       1.32615262      -1.38033681       0.00000000
Si       1.38274408       1.35057133       1.34027927       0.00000000
Si      -0.05548374       2.72104904       2.57339805       0.00000000
Si      -0.21598911      -2.68750793       2.67504442       0.00000000
Si       2.72453510       2.68327253      -0.03250117       0.00000000
Si       2.72375318      -0.03995937      -2.68522657       0.00000000
Si       0.00993690      -2.73289188      -2.67860380       0.00000000
Si      -0.00949707       2.67760361      -2.74208902       0.00000000
