10
Lattice="16.290000149 0.0 0.0 0.0 16.290000149 0.0 0.0 0.0 29.1751946751" Properties=species:S:1:pos:R:3:initial_magmoms:R:1 pbc="T T T"
Si       1.25967313      -0.24610932      -1.93729128       0.00000000
Si      -0.34031439       2.12118608       0.93135974       0.00000000
Si       1.22461705      -1.32348106       1.51544714       0.00000000
Si      -2.06280272      -0.69421465      -0.90090084       0.00000000
H        2.57443904      -0.70087726      -1.33108908       0.00000000
H       -2.51502941       0.29245437       1.72098638       0.00000000
H        0.37067895      -3.06491466      -0.24157061       0.00000000
H       -1.25371099       2.05030829       2.14440598       0.00000000
H       -3.19003815      -0.63421858       0.10806492       0.00000000
Si       0.28556370      -2.24209046      -2.81502701       0.00000000
