10
Lattice="16.2900001489832 0.0 0.0 0.0 16.2900001489832 0.0 0.0 0.0 29.41874646731717" Properties=species:S:1:pos:R:3:initial_magmoms:R:1 pbc="T T T"
Si       1.44072019      -0.55232875       0.17371770       0.00000000
H       -1.10022661      -0.58616308      -1.81572503       0.00000000
Si      -2.29480490       0.06915105       0.58375619       0.00000000
Si      -1.16234038      -1.73804528       1.73273475       0.00000000
Si      -1.41250591       2.28724634       0.69184066       0.00000000
Si       1.91345600       1.26257275       1.62256154       0.00000000
Si       1.85197754      -0.28540080      -2.15321689       0.00000000
Si       0.82016893      -2.71937117       0.85187864       0.00000000
Si      -0.28489581       2.71314839      -1.34370124       0.00000000
Si      -0.19082106      -1.20159928      -2.85832541       0.00000000
