10
Lattice="16.2900001489832 0.0 0.0 0.0 16.2900001489832 0.0 0.0 0.0 29.41874646731717" Properties=species:S:1:pos:R:3:initial_magmoms:R:1 pbc="T T T"
Si       1.09247257       1.72261213       1.14162270       0.00000000
Si      -0.88016500       1.61102400      -1.46414865       0.00000000
Si      -1.86246830      -0.99574255       1.04815346       0.00000000
Si       1.70540012      -1.75958066      -0.23205881       0.00000000
Si      -0.58168333      -2.34233912       2.48748328       0.00000000
Si       2.31676382       0.39392478       2.57010583       0.00000000
Si       0.83158822      -3.55710072       1.08463859       0.00000000
Si       3.55400562      -0.91709443       1.05437846       0.00000000
Si      -1.48691863       0.59185708      -3.49218878       0.00000000
Si       2.56541438       2.85114099      -0.39557153       0.00000000
