10
Lattice="16.2900001489832 0.0 0.0 0.0 16.2900001489832 0.0 0.0 0.0 29.41874646731717" Properties=species:S:1:pos:R:3:initial_magmoms:R:1 pbc="T T T"
Si      -1.33905430       1.37010304      -1.36926614       0.00000000
Si       1.47961583       1.31992984       1.27324335       0.00000000
Si       1.37830669      -1.32459041      -1.39703743       0.00000000
Si      -1.37430586      -1.36827856       1.40695155       0.00000000
Si       2.67573026      -0.25008408       2.58929097       0.00000000
Si       0.09109368       2.57025251       2.72388174       0.00000000
Si      -2.63932211      -2.71725347      -0.04248067       0.00000000
Si      -2.73140948       2.67933035       0.01112029       0.00000000
Si      -2.63738360       0.01013238      -2.77895363       0.00000000
Si       2.68635134      -2.74365957      -0.06104390       0.00000000
