10
Lattice="16.2900001489832 0.0 0.0 0.0 16.2900001489832 0.0 0.0 0.0 29.41874646731717" Properties=species:S:1:pos:R:3:initial_magmoms:R:1 pbc="T T T"
Si       1.53573976       1.22328779       1.24097098       0.00000000
Si      -1.30804466       1.41906915      -1.33599353       0.00000000
Si       1.38140830      -1.33783255      -1.35743980       0.00000000
Si      -1.25796594      -1.27022905       1.58328752       0.00000000
Si      -0.01062108       2.49357548       2.65033487       0.00000000
Si       2.73056241      -2.48088557       0.21737512       0.00000000
Si      -2.59553459      -2.64368783       0.11561567       0.00000000
Si       3.40749336      -0.40374765       1.44604906       0.00000000
Si      -2.62031168       0.04720842      -2.71276145       0.00000000
Si       0.02660157      -2.67714749      -2.74847581       0.00000000
