10
Lattice="16.2900001489832 0.0 0.0 0.0 16.2900001489832 0.0 0.0 0.0 29.41874646731717" Properties=species:S:1:pos:R:3:initial_magmoms:R:1 pbc="T T T"
Si      -0.83983096       2.19295982      -0.11552742       0.00000000
Si       1.73563436      -0.39680811       1.55675181       0.00000000
Si       0.31543956       0.03521898      -2.36762072       0.00000000
Si      -1.70994503      -1.63692510       0.48817468       0.00000000
Si      -2.00459855      -0.60046570      -2.62659394       0.00000000
Si      -2.66348018       1.42757416      -1.52371455       0.00000000
Si       0.26269254      -1.52533697       3.09394603       0.00000000
H        2.54299934      -2.38811239      -0.59949522       0.00000000
Si       1.23647617       3.26598213      -0.83452158       0.00000000
Si       3.47462445      -1.58207504       0.33290254       0.00000000
