10
Lattice="16.2900001489832 0.0 0.0 0.0 16.2900001489832 0.0 0.0 0.0 29.41874646731717" Properties=species:S:1:pos:R:3:initial_magmoms:R:1 pbc="T T T"
Si      -1.33898914      -1.08786250      -1.49976769       0.00000000
Si      -0.86079619       1.68103028       1.32310812       0.00000000
Si      -0.24281874      -1.68935121       1.58855347       0.00000000
Si       2.06197193       0.86931586      -0.82557828       0.00000000
Si       0.57042694       1.34718301       3.17557717       0.00000000
Si       0.06550209      -2.61297630      -2.59861671       0.00000000
Si      -0.02234988       3.69180273       0.51312178       0.00000000
Si       2.21338748       2.97393501       0.38735663       0.00000000
Si      -2.55647117      -2.16400109       1.70849370       0.00000000
Si      -2.35491500       0.39061791      -2.96332091       0.00000000
