10
Lattice="16.2900001489832 0.0 0.0 0.0 16.2900001489832 0.0 0.0 0.0 29.41874646731717" Properties=species:S:1:pos:R:3:initial_magmoms:R:1 pbc="T T T"
Si       0.06838542       1.84689506      -1.51915465       0.00000000
Si      -0.46830492       0.48177675       2.31922688       0.00000000
Si      -2.01704411      -0.84328444      -1.17972115       0.00000000
Si       2.41746860      -0.58754773      -0.25064772       0.00000000
H       -0.29931246      -3.15025797      -0.66465774       0.00000000
Si       1.57903858       1.25423227      -3.18855084       0.00000000
Si      -1.06746742      -1.58754196      -3.25883222       0.00000000
Si       3.13709239      -0.39532572      -2.51977447       0.00000000
Si      -1.30235293      -1.39611817       3.61117466       0.00000000
Si       0.43930872       4.01858502      -0.65468478       0.00000000
