10
Lattice="16.2900001489832 0.0 0.0 0.0 16.2900001489832 0.0 0.0 0.0 29.41874646731717" Properties=species:S:1:pos:R:3:initial_magmoms:R:1 pbc="T T T"
Si       1.29973024       1.31549896       1.43542890       0.00000000
Si      -1.43384581       1.38362374      -1.27253141       0.00000000
Si       1.20596500      -1.32038596      -1.57635058       0.00000000
Si      -1.35355240      -1.33235911       1.46214112       0.00000000
Si      -0.80501923      -2.00314874      -2.78545517       0.00000000
Si      -2.57069234      -0.21672216      -2.57121286       0.00000000
Si       2.63107937       2.62930376       0.03001595       0.00000000
Si       2.74219347      -0.06543693       2.64095029       0.00000000
Si       2.63137259      -2.76814344      -0.21045289       0.00000000
Si      -2.84711736       2.59838534       0.13031328       0.00000000
