10
Lattice="16.2900001489832 0.0 0.0 0.0 16.2900001489832 0.0 0.0 0.0 29.41874646731717" Properties=species:S:1:pos:R:3:initial_magmoms:R:1 pbc="T T T"
Si      -1.38803833      -1.38489436      -1.27464074       0.00000000
Si       1.33693660      -1.48338370       1.25729839       0.00000000
Si      -1.41406975       1.27560475       1.42460280       0.00000000
Si       1.35355240       1.33235911      -1.46214112       0.00000000
Si       2.74603791      -0.07257195       2.51921552       0.00000000
Si       2.65328264       2.64785807      -0.02671222       0.00000000
Si      -2.80627833       2.53886168       0.00741352       0.00000000
Si      -0.09467748      -2.55668294      -2.84136550       0.00000000
Si      -0.08029341       2.71598285      -2.73467253       0.00000000
Si      -2.72476316      -0.12412980      -2.72525265       0.00000000
