10
Lattice="16.2900001489832 0.0 0.0 0.0 16.2900001489832 0.0 0.0 0.0 29.41874646731717" Properties=species:S:1:pos:R:3:initial_magmoms:R:1 pbc="T T T"
Si       1.48141261      -1.47290923       1.07401960       0.00000000
Si      -1.26876295      -1.43037604      -1.38506400       0.00000000
Si       1.39276243       1.25361325      -1.43890031       0.00000000
Si      -1.33043689       1.42620580       1.45581609       0.00000000
Si       2.73509102      -0.10811673       2.48129475       0.00000000
Si      -2.67959099       2.56925882      -0.11899883       0.00000000
Si       2.68965821       2.64503990      -0.06207356       0.00000000
Si      -2.54112599      -2.81838180       0.04515778       0.00000000
Si       0.06020784       2.60323976      -2.82608246       0.00000000
Si      -2.66097152      -0.16711911      -2.80225328       0.00000000
