10
Lattice="16.2900001489832 0.0 0.0 0.0 16.2900001489832 0.0 0.0 0.0 29.41874646731717" Properties=species:S:1:pos:R:3:initial_magmoms:R:1 pbc="T T T"
Si      -1.68591728       1.42177818      -0.82028291       0.00000000
Si       0.69175486       0.63498421       2.15801215       0.00000000
Si      -1.25446033      -1.90389377       0.58705109       0.00000000
Si       1.97037326      -0.03292209      -1.37379662       0.00000000
Si      -2.06904179       0.28227671      -2.78639657       0.00000000
Si      -3.20653992      -0.93445957       1.55748728       0.00000000
Si       3.68150745       0.91776883       0.07036964       0.00000000
Si      -0.64679446       3.42606396      -1.61335348       0.00000000
Si       0.12276144      -1.11259072       3.68931674       0.00000000
Si      -0.03305241       2.86102902       2.58564305       0.00000000
