10
Lattice="16.2900001489832 0.0 0.0 0.0 16.2900001489832 0.0 0.0 0.0 29.41874646731717" Properties=species:S:1:pos:R:3:initial_magmoms:R:1 pbc="T T T"
Si       0.68937652       2.22371534      -0.39597633       0.00000000
Si      -1.85728808       0.41089896       1.44949106       0.00000000
Si       1.46013787      -0.68352841       1.80110391       0.00000000
Si       0.95485465      -1.93274987      -1.24464833       0.00000000
H       -2.54432535       1.35127180      -1.45675749       0.00000000
H       -1.96939586      -0.22051773      -2.63621387       0.00000000
Si      -1.90408925      -1.82730796       2.29383850       0.00000000
Si       0.34367013      -2.66338244       2.42622286       0.00000000
Si       1.11444778       2.98791183       1.76527188       0.00000000
Si       3.16405560      -0.97139714      -1.54827921       0.00000000
