10
Lattice="16.2900001489832 0.0 0.0 0.0 16.2900001489832 0.0 0.0 0.0 29.41874646731717" Properties=species:S:1:pos:R:3:initial_magmoms:R:1 pbc="T T T"
H       -1.44072019       0.55232875      -0.17371770       0.00000000
Si      -0.62055127      -2.16704243       0.67816094       0.00000000
Si       0.47273580       1.81490150       1.44884384       0.00000000
Si       0.41125734       0.26692794      -2.32693459       0.00000000
H        2.88562692      -1.02941398      -0.21893431       0.00000000
H       -2.54094680      -0.03383433      -1.98944273       0.00000000
Si      -2.60306057      -1.18571653       1.55901705       0.00000000
Si       0.36440730       2.60741000      -2.24206151       0.00000000
Si       1.52664994       3.11870424      -0.25470751       0.00000000
Si      -1.63154125      -0.64927054      -3.03204310       0.00000000
