10
Lattice="16.2900001489832 0.0 0.0 0.0 16.2900001489832 0.0 0.0 0.0 29.41874646731717" Properties=species:S:1:pos:R:3:initial_magmoms:R:1 pbc="T T T"
Si      -0.82381789       0.60093811      -1.13006231       0.00000000
H       -0.32700546      -0.09619245       2.13012318       0.00000000
H        0.98811883      -2.38974302      -0.72128883       0.00000000
Si      -2.80137504       1.20014947       0.02212290       0.00000000
H       -1.04156632      -2.81077437      -0.61805844       0.00000000
Si       0.47672685       2.44636706      -1.78280545       0.00000000
Si      -1.19226511      -0.94815946      -2.86185566       0.00000000
H        0.58580470       1.99179461       2.55560651       0.00000000
H       -1.46202751      -2.17797302      -2.06234238       0.00000000
Si       0.28310391      -0.48570264       3.44087542       0.00000000
