10
Lattice="16.2900001489832 0.0 0.0 0.0 16.2900001489832 0.0 0.0 0.0 29.41874646731717" Properties=species:S:1:pos:R:3:initial_magmoms:R:1 pbc="T T T"
H       -1.16590789      -0.96164758      -0.18401426       0.00000000
Si      -0.60637897       1.83986266      -1.31922485       0.00000000
Si       1.95207959      -0.96943420      -0.97043619       0.00000000
Si      -0.01591533       0.68608594       2.29210279       0.00000000
Si       2.57507435      -2.11471895       0.97843809       0.00000000
Si      -1.70061086      -0.70970644       3.10606067       0.00000000
Si       1.52062264       2.35623775      -2.37777018       0.00000000
Si       3.20653992       0.93445957      -1.55748728       0.00000000
Si       0.68279536      -3.01990539       2.06154808       0.00000000
Si      -3.12499218      -1.53876970       1.40824597       0.00000000
