10
Lattice="16.2900001489832 0.0 0.0 0.0 16.2900001489832 0.0 0.0 0.0 29.41874646731717" Properties=species:S:1:pos:R:3:initial_magmoms:R:1 pbc="T T T"
Si      -1.16849800       0.86739364       0.44492912       0.00000000
H        1.14207562       0.52579233      -2.43448953       0.00000000
Si      -0.50857380      -2.15309819      -1.62179666       0.00000000
Si       0.13903515       2.27993213       1.84134288       0.00000000
Si      -2.18997875       1.61197696      -1.64012453       0.00000000
Si      -2.62730009      -0.48037581       1.77650396       0.00000000
Si       1.82707013      -2.32313321      -1.59452548       0.00000000
Si       2.23510205      -2.66440871       0.70878586       0.00000000
Si       1.55549953       0.78240871       3.17050832       0.00000000
Si       2.97360921      -0.72914041       1.94914787       0.00000000
