10
Lattice="16.2900001489832 0.0 0.0 0.0 16.2900001489832 0.0 0.0 0.0 29.41874646731717" Properties=species:S:1:pos:R:3:initial_magmoms:R:1 pbc="T T T"
Si       0.98523550       1.67536136       1.32212701       0.00000000
Si      -1.01261899       1.54765753      -1.47856119       0.00000000
Si      -1.76301785      -1.03531096       1.19523807       0.00000000
Si       1.75475882      -1.74112409      -0.30542984       0.00000000
H       -1.94424410       0.74162018      -2.41095894       0.00000000
Si      -0.42051006      -2.42963723       2.52804555       0.00000000
Si       2.39130686       0.32405697       2.60286331       0.00000000
Si       0.92071081      -3.61901901       0.98651795       0.00000000
Si       3.61493022      -0.93617002       1.02068488       0.00000000
Si      -2.75160909       2.73292445      -0.25471192       0.00000000
