10
Lattice="16.2900001489832 0.0 0.0 0.0 16.2900001489832 0.0 0.0 0.0 29.41874646731717" Properties=species:S:1:pos:R:3:initial_magmoms:R:1 pbc="T T T"
Si       1.40607136      -1.35130438       1.28073630       0.00000000
Si      -1.42899139       1.32809113       1.30014385       0.00000000
Si      -0.98523550      -1.67536136      -1.32212701       0.00000000
Si       1.02226267       1.69036445      -1.31030773       0.00000000
Si      -1.99785449      -0.12770383      -2.80068820       0.00000000
Si       2.62969472      -2.61153137      -0.30144213       0.00000000
Si      -0.03841182       2.66307293       2.66422640       0.00000000
Si      -0.01583388      -2.74519083       2.58676684       0.00000000
Si      -2.66880701       2.66018960      -0.20582238       0.00000000
Si       2.62298324       2.75261907       0.06189410       0.00000000
