10
Lattice="16.2900001489832 0.0 0.0 0.0 16.2900001489832 0.0 0.0 0.0 29.41874646731717" Properties=species:S:1:pos:R:3:initial_magmoms:R:1 pbc="T T T"
Si       0.50676561      -1.46003199       1.77156749       0.00000000
Si      -0.63757432       2.02761632       1.01632943       0.00000000
Si       1.85609891       0.17311383      -1.50144456       0.00000000
Si      -1.65721430      -1.16470243      -1.28895296       0.00000000
H        1.87639625      -1.76495473      -1.65724624       0.00000000
H        1.90571825       1.97213258      -1.48364622       0.00000000
Si       2.45319257      -2.43123365       0.77577234       0.00000000
Si      -1.70243534      -2.42138472       2.07519838       0.00000000
Si       1.29968137      -3.19720575      -1.15312661       0.00000000
Si      -0.26279028      -2.36190993      -2.83714391       0.00000000
