10
Lattice="16.2900001489832 0.0 0.0 0.0 16.2900001489832 0.0 0.0 0.0 29.41874646731717" Properties=species:S:1:pos:R:3:initial_magmoms:R:1 pbc="T T T"
Si       1.79721381       1.36743148      -0.57148857       0.00000000
Si      -1.55805381       1.64955800      -0.66877636       0.00000000
Si      -0.71962379      -0.19222200       2.26912675       0.00000000
Si      -0.53458568      -1.85569166      -1.42919212       0.00000000
Si      -2.31228081      -0.28702980      -1.82216774       0.00000000
H        2.38873630      -2.26098686       0.95222599       0.00000000
Si       1.83702657       2.56855835       1.51941942       0.00000000
Si      -0.03719007      -2.38617551       2.85661912       0.00000000
Si       0.79874269       1.41579649       3.36900543       0.00000000
Si       3.31759211       0.08881308      -1.87203251       0.00000000
