10
Lattice="16.2900001489832 0.0 0.0 0.0 16.2900001489832 0.0 0.0 0.0 29.41874646731717" Properties=species:S:1:pos:R:3:initial_magmoms:R:1 pbc="T T T"
Si      -1.65410291      -1.28674711      -1.10490928       0.00000000
Si       1.61761330       0.68049847      -1.67533877       0.00000000
Si      -1.48682089       1.48818925       1.23217478       0.00000000
Si       1.35856972      -1.38984652       1.53417321       0.00000000
H       -1.56025621      -0.99339679      -2.58484874       0.00000000
Si      -0.97049305      -3.51852600      -0.87520771       0.00000000
Si       2.49541625       0.21049938       2.83285466       0.00000000
Si       1.67342285      -1.19721727      -3.17525356       0.00000000
Si      -0.14905350      -2.62961327       2.84227454       0.00000000
Si      -0.19864026       2.77185756       2.79636953       0.00000000
