10
Lattice="16.2900001489832 0.0 0.0 0.0 16.2900001489832 0.0 0.0 0.0 29.41874646731717" Properties=species:S:1:pos:R:3:initial_magmoms:R:1 pbc="T T T"
Si      -1.25354809      -0.36828432       0.78612774       0.00000000
H       -0.79102612      -1.67615957       1.40536294       0.00000000
H        1.56695140      -0.79467508      -1.60973497       0.00000000
Si       1.16971975       2.11766092      -0.53127314       0.00000000
Si       0.59632804       0.91996147      -2.61270829       0.00000000
Si      -1.41648067       1.60544989       2.21590824       0.00000000
Si      -2.71702541      -1.22249935      -0.96605280       0.00000000
Si       2.73219141       1.28236510       1.15274416       0.00000000
Si       2.70278795      -1.69244957      -1.09172968       0.00000000
Si      -0.22470426       3.31486842       1.01691781       0.00000000
