10
Lattice="16.2900001489832 0.0 0.0 0.0 16.2900001489832 0.0 0.0 0.0 29.41874646731717" Properties=species:S:1:pos:R:3:initial_magmoms:R:1 pbc="T T T"
H        0.05791095      -1.59879835      -0.44692960       0.00000000
Si      -1.49376043       1.10457604      -1.39527231       0.00000000
Si      -0.94675852       0.26036307       2.12397466       0.00000000
Si       2.22231440       0.62159383       0.44884181       0.00000000
H       -2.39645450      -0.85760335      -1.50741657       0.00000000
H        0.77452435       0.23341941      -2.84761698       0.00000000
Si       0.00829161      -3.39781710      -0.46472794       0.00000000
Si      -2.48538161      -1.54331461       2.05304606       0.00000000
Si      -3.29545074       1.54557892       0.04665813       0.00000000
Si       2.72512155      -0.66878596       2.37985891       0.00000000
