10
Lattice="16.2900001489832 0.0 0.0 0.0 16.2900001489832 0.0 0.0 0.0 29.41874646731717" Properties=species:S:1:pos:R:3:initial_magmoms:R:1 pbc="T T T"
Si       1.34605900      -1.22675104      -1.50438644       0.00000000
Si      -1.30264615       1.44682243      -1.38088654       0.00000000
Si       1.25481871       1.30050890       1.56307684       0.00000000
Si      -1.28629099      -1.51962895       1.33213968       0.00000000
H       -2.07875063       1.47162395       1.86711958       0.00000000
Si      -2.65546550       0.03937293       2.37123922       0.00000000
Si       2.59613732      -2.66334986      -0.16183252       0.00000000
Si       2.52345134      -0.26349075       2.87712399       0.00000000
Si       2.72896599       2.69775434       0.19460501       0.00000000
Si      -0.01739772      -2.55490733      -2.88321367       0.00000000
