10
Lattice="16.2900001489832 0.0 0.0 0.0 16.2900001489832 0.0 0.0 0.0 29.41874646731717" Properties=species:S:1:pos:R:3:initial_magmoms:R:1 pbc="T T T"
Si      -0.43847793      -1.29407110      -0.63618039       0.00000000
H       -0.57492949       1.57178953       1.17945638       0.00000000
Si      -1.07712576       2.57056202       0.17948377       0.00000000
Si       1.77769514      -2.16496839      -0.77359536       0.00000000
Si      -1.90213933      -2.34400070       0.98999966       0.00000000
Si      -1.33709462      -0.72541000      -2.86044356       0.00000000
Si       0.42800346       2.82699921      -1.64086000       0.00000000
Si       1.96939586       0.22051773       2.63621387       0.00000000
Si       2.96947155      -0.45554985      -1.97258579       0.00000000
Si       1.67511701       1.29468034      -2.95746658       0.00000000
