10
Lattice="16.2900001489832 0.0 0.0 0.0 16.2900001489832 0.0 0.0 0.0 29.41874646731717" Properties=species:S:1:pos:R:3:initial_magmoms:R:1 pbc="T T T"
Si      -1.68469553      -1.39579237       0.81395788       0.00000000
Si      -0.89878447       2.07740182       0.57584254       0.00000000
Si       1.83456353      -0.27155430       1.50912286       0.00000000
Si       0.01591533      -0.68608594      -2.29210279       0.00000000
H       -1.14999256      -1.64773352      -2.47611705       0.00000000
Si       3.34521669      -0.86421709      -0.16027333       0.00000000
Si      -0.25086600      -2.96173380       1.84855635       0.00000000
Si      -3.21243690       1.60275194       0.69578277       0.00000000
Si       2.20548683       1.90013566       2.37359272       0.00000000
Si       0.69871069      -3.70599132      -0.23055472       0.00000000
