10
Lattice="16.2900001489832 0.0 0.0 0.0 16.2900001489832 0.0 0.0 0.0 29.41874646731717" Properties=species:S:1:pos:R:3:initial_magmoms:R:1 pbc="T T T"
Si      -1.29435454       1.75023020      -0.98488079       0.00000000
Si       1.65721430       1.16470243       1.28895296       0.00000000
Si       1.39442401      -1.19720750      -1.54819095       0.00000000
Si      -1.19177641      -1.70941853       1.19899043       0.00000000
H        0.22470426      -3.31486842      -1.01691781       0.00000000
Si      -2.59708214       0.50241618      -2.42534030       0.00000000
Si       2.95689567      -2.03250332       0.13582635       0.00000000
Si      -0.04522104      -1.25668229       3.36415133       0.00000000
H       -2.96947155       0.45554985       1.97258579       0.00000000
H        3.53361054      -0.60025230      -0.36829329       0.00000000
