10
Lattice="16.2900001489832 0.0 0.0 0.0 16.2900001489832 0.0 0.0 0.0 29.41874646731717" Properties=species:S:1:pos:R:3:initial_magmoms:R:1 pbc="T T T"
Si       1.37373571       1.33750187       1.31732734       0.00000000
Si      -1.40607136       1.35130438      -1.28073630       0.00000000
Si       1.22362336      -1.26022699      -1.58217843       0.00000000
Si      -1.42190524      -1.39388644       1.30603054       0.00000000
Si      -2.39130686      -0.32405697      -2.60286331       0.00000000
Si      -0.63654805      -2.06518106      -2.90829315       0.00000000
Si       2.61342101      -2.67947696      -0.18811817       0.00000000
Si      -0.03648960       2.65150703       2.68750546       0.00000000
Si       2.66693366      -0.05507649       2.69265374       0.00000000
Si       2.73177954       2.65575872      -0.12690953       0.00000000
