10
Lattice="16.2900001489832 0.0 0.0 0.0 16.2900001489832 0.0 0.0 0.0 29.41874646731717" Properties=species:S:1:pos:R:3:initial_magmoms:R:1 pbc="T T T"
Si      -1.26501625      -1.34897491      -1.44943222       0.00000000
Si       1.31649265      -1.33902172       1.41407089       0.00000000
Si      -1.30155472       1.24165639       1.56687186       0.00000000
Si       1.37430586       1.36827856      -1.40695155       0.00000000
Si       0.63736255       2.15200676       2.71888055       0.00000000
Si       2.34055211       0.34591815       2.71982195       0.00000000
Si      -2.63021600       2.60956028       0.06380926       0.00000000
Si      -2.68446170      -2.68284899      -0.13211959       0.00000000
Si      -0.14260266      -2.72979677       2.63812609       0.00000000
Si      -2.60387507       0.00714317      -2.80793109       0.00000000
