10
Lattice="16.2900001489832 0.0 0.0 0.0 16.2900001489832 0.0 0.0 0.0 29.41874646731717" Properties=species:S:1:pos:R:3:initial_magmoms:R:1 pbc="T T T"
Si      -1.51065316       0.59266279       1.66939619       0.00000000
Si       1.55805381      -1.64955800       0.66877636       0.00000000
Si      -0.75422701      -1.93658780      -1.15339137       0.00000000
Si       0.56899342       1.74757493      -1.53130459       0.00000000
Si       3.35526762      -0.28212651       0.09728779       0.00000000
Si      -3.34521669       0.86421709       0.16027333       0.00000000
Si      -1.37722177      -0.79130305      -3.10226565       0.00000000
Si       0.83843002      -1.84178000       2.93790312       0.00000000
Si       2.94435237       1.63032113      -1.35941086       0.00000000
Si       1.02346813      -3.50524965      -0.76041576       0.00000000
