10
Lattice="16.2900001489832 0.0 0.0 0.0 16.2900001489832 0.0 0.0 0.0 29.41874646731717" Properties=species:S:1:pos:R:3:initial_magmoms:R:1 pbc="T T T"
Si       1.45008694       1.28754532       1.32331405       0.00000000
Si       1.39235518      -1.30922731      -1.38038642       0.00000000
Si      -1.26550495       1.39077505      -1.48158691       0.00000000
Si      -1.27311238      -1.43804863       1.45964052       0.00000000
H       -2.35063073      -0.74367109       2.28771940       0.00000000
Si       0.06615369       2.64099998       2.65033487       0.00000000
Si      -2.60278364      -2.72202644      -0.01323844       0.00000000
Si       2.73140948      -2.67933035      -0.01112029       0.00000000
Si      -2.63119340       2.78896206      -0.20657844       0.00000000
Si       0.09402588      -2.66919797      -2.79007391       0.00000000
