10
Lattice="16.2900001489832 0.0 0.0 0.0 16.2900001489832 0.0 0.0 0.0 29.41874646731717" Properties=species:S:1:pos:R:3:initial_magmoms:R:1 pbc="T T T"
Si      -2.23573736       0.71786773       0.12576514       0.00000000
Si       1.49527540       1.57387465      -0.90559727       0.00000000
Si       0.42966504      -0.44173593       2.32472818       0.00000000
Si      -0.15141555      -2.10461915      -1.21293492       0.00000000
H       -2.84584674       1.10737792      -1.18498711       0.00000000
Si      -3.07418367      -1.29290473       0.93575149       0.00000000
Si       3.33471779       0.07221357      -0.94631282       0.00000000
Si      -1.64296054      -1.62675199       2.78822053       0.00000000
Si      -2.16132464       2.45017892       1.71717223       0.00000000
Si      -2.21338748      -2.97393501      -0.38735663       0.00000000
