10
Lattice="16.2900001489832 0.0 0.0 0.0 16.2900001489832 0.0 0.0 0.0 29.41874646731717" Properties=species:S:1:pos:R:3:initial_magmoms:R:1 pbc="T T T"
Si      -0.57671488      -1.43225102       0.50411964       0.00000000
Si      -0.02029734       1.93806856       0.15580168       0.00000000
Si      -0.76870882       1.20910734      -1.98429445       0.00000000
Si       1.89402203       0.99380241       1.23749957       0.00000000
Si      -2.13918653      -0.59695520      -1.17989766       0.00000000
Si       0.57679633      -0.66627893       2.43301859       0.00000000
Si      -1.87639625       1.76495473       1.65724624       0.00000000
Si       0.79245964      -2.99125291      -0.53497990       0.00000000
Si       2.07875063      -1.47162395      -1.86711958       0.00000000
Si       0.77610448      -0.02480153      -3.24800612       0.00000000
