10
Lattice="16.2900001489832 0.0 0.0 0.0 16.2900001489832 0.0 0.0 0.0 29.41874646731717" Properties=species:S:1:pos:R:3:initial_magmoms:R:1 pbc="T T T"
Si      -1.33504696      -1.30908070      -1.44293068       0.00000000
Si      -1.37753128       1.32129820       1.39447800       0.00000000
Si       1.37648872       1.38807091      -1.35696910       0.00000000
Si       1.36982611      -1.39678606       1.37129603       0.00000000
Si       0.14669145      -2.65828367      -2.67940059       0.00000000
Si      -2.67258629       2.70897815      -0.03068375       0.00000000
Si      -2.64477926      -2.74854657      -0.05148281       0.00000000
Si       0.00977400       2.68433138       2.72711780       0.00000000
Si       2.79815776       0.02928942      -2.66828030       0.00000000
Si       2.76307399       2.71415837       0.06069087       0.00000000
