10
Lattice="16.2900001489832 0.0 0.0 0.0 16.2900001489832 0.0 0.0 0.0 29.41874646731717" Properties=species:S:1:pos:R:3:initial_magmoms:R:1 pbc="T T T"
Si       1.38852215      -1.25032267      -1.45063839       0.00000000
Si       1.28446814       1.44210484       1.37056056       0.00000000
Si      -1.37241622       1.39662316      -1.38944740       0.00000000
Si      -0.82803700      -1.78652432       1.40195036       0.00000000
Si       2.64025064      -0.04020372       2.62247532       0.00000000
Si      -0.09109368      -2.57025251      -2.72388174       0.00000000
Si       2.58463658      -2.82033660      -0.13459077       0.00000000
Si      -1.01416654      -0.83771326       3.59947189       0.00000000
Si       2.62151714       2.83815786       0.01773950       0.00000000
Si      -2.76695427      -2.69687468       0.24994167       0.00000000
