10
Lattice="16.2900001489832 0.0 0.0 0.0 16.2900001489832 0.0 0.0 0.0 29.41874646731717" Properties=species:S:1:pos:R:3:initial_magmoms:R:1 pbc="T T T"
Si      -0.86677462      -2.22237956      -0.08319622       0.00000000
Si       1.15869142       0.02127474       2.09649755       0.00000000
Si      -1.47636108       1.87015718       0.47322996       0.00000000
H        2.35326971      -0.63403939      -0.30298367       0.00000000
Si       0.72554032       0.80594776      -2.24276756       0.00000000
H       -2.13323579       0.18450054      -2.14965722       0.00000000
H        0.03999195       0.12214242       3.11726921       0.00000000
Si      -2.91406926       1.07274538      -1.18860561       0.00000000
Si       1.54041499       2.84109006      -1.49514895       0.00000000
Si       3.26267526      -1.24947559      -1.34558404       0.00000000
