10
Lattice="16.2900001489832 0.0 0.0 0.0 16.2900001489832 0.0 0.0 0.0 29.41874646731717" Properties=species:S:1:pos:R:3:initial_magmoms:R:1 pbc="T T T"
Si       1.20220853       1.41016015       1.43486994       0.00000000
Si      -1.34659657      -1.42410439       1.29807277       0.00000000
Si       1.36882916      -1.36567216      -1.33987681       0.00000000
Si      -1.37443618       1.35757603      -1.34596649       0.00000000
H        1.93906388       0.56832553       2.45258206       0.00000000
Si      -0.42150375       2.49499271       2.68260723       0.00000000
Si       0.05874174       2.75724543      -2.59952869       0.00000000
Si       2.77397526       0.07840377      -2.58934981       0.00000000
Si       2.68053581      -2.73699696       0.08752077       0.00000000
Si      -0.01438407      -2.72354141      -2.70178826       0.00000000
