10
Lattice="16.2900001489832 0.0 0.0 0.0 16.2900001489832 0.0 0.0 0.0 29.41874646731717" Properties=species:S:1:pos:R:3:initial_magmoms:R:1 pbc="T T T"
Si       1.12798477      -0.50197635       1.99170797       0.00000000
Si      -0.47273580      -1.81490150      -1.44884384       0.00000000
Si      -2.06299820       0.61903630       1.01288744       0.00000000
Si       1.05391414       1.30380274      -1.70355135       0.00000000
H       -1.91345600      -1.26257275      -1.62256154       0.00000000
H       -0.57744793       2.86591602       0.11196775       0.00000000
Si       0.59223925       3.37276308      -0.74129357       0.00000000
Si      -3.32596191       1.02467359      -0.93072088       0.00000000
H        3.32570127      -0.75632842      -1.24229483       0.00000000
Si      -2.59719617      -1.55761723       2.01997939       0.00000000
