10
Lattice="16.2900001489832 0.0 0.0 0.0 16.2900001489832 0.0 0.0 0.0 29.41874646731717" Properties=species:S:1:pos:R:3:initial_magmoms:R:1 pbc="T T T"
Si       0.96526396       1.99989074      -0.68657471       0.00000000
Si      -0.25822908      -0.85892284      -2.19031393       0.00000000
Si      -2.06757569       1.07504227       0.73738088       0.00000000
Si       1.84637378      -1.56141118       0.52586009       0.00000000
Si       2.75270052       0.98852608      -1.89439076       0.00000000
Si      -1.37469682      -2.83877688      -1.56519499       0.00000000
Si      -1.18514638      -0.53512650       3.29651764       0.00000000
Si      -0.60391918       2.81251740      -2.22614596       0.00000000
Si      -3.11753136      -0.70501492       1.81166524       0.00000000
Si      -2.69175962       2.13938201      -1.31142888       0.00000000
