10
Lattice="16.2900001489832 0.0 0.0 0.0 16.2900001489832 0.0 0.0 0.0 29.41874646731717" Properties=species:S:1:pos:R:3:initial_magmoms:R:1 pbc="T T T"
Si      -0.09384669      -0.29335032       1.47993946       0.00000000
H       -0.03028311      -1.91541080      -1.62132596       0.00000000
Si      -2.42592637      -0.12518865       1.90439313       0.00000000
Si       0.58976317      -2.52512921       1.70964103       0.00000000
Si       1.56025621       0.99339679       2.58484874       0.00000000
Si       1.97071535       0.20181681      -2.53401315       0.00000000
Si       3.23367906      -0.20382048      -0.59040482       0.00000000
Si      -2.38873630       2.26098686      -0.95222599       0.00000000
Si       1.08841636      -2.01627848      -2.64209762       0.00000000
Si       2.69948108      -2.38047401       0.41668713       0.00000000
