10
Lattice="16.2900001489832 0.0 0.0 0.0 16.2900001489832 0.0 0.0 0.0 29.41874646731717" Properties=species:S:1:pos:R:3:initial_magmoms:R:1 pbc="T T T"
Si       1.41625261      -1.66665109      -0.77806701       0.00000000
Si      -0.31543956      -0.03521898       2.36762072       0.00000000
Si      -2.32003811      -0.63568468      -0.25897323       0.00000000
Si       0.84644470       2.20810952      -0.59896568       0.00000000
Si      -1.15527052       2.15774084       2.25209330       0.00000000
Si      -2.97891975       1.39235518       0.84390616       0.00000000
Si       0.71148205      -1.66196935      -3.02963077       0.00000000
Si       0.92103661       3.23076315       1.53309913       0.00000000
Si      -1.13489173      -0.10055817      -3.55549086       0.00000000
H        2.22755978      -2.42333137       1.76812550       0.00000000
