10
Lattice="16.2900001489832 0.0 0.0 0.0 16.2900001489832 0.0 0.0 0.0 29.41874646731717" Properties=species:S:1:pos:R:3:initial_magmoms:R:1 pbc="T T T"
Si       1.39248550      -1.37875303       1.28595225       0.00000000
Si       1.40634829       1.42561936      -1.23427822       0.00000000
Si      -1.27752697       1.37371942       1.45343317       0.00000000
Si      -1.35185824      -1.41156109      -1.37821238       0.00000000
Si       0.06962346       2.68638392      -2.68489013       0.00000000
Si      -2.65224823       2.72518670       0.06225007       0.00000000
Si       0.02743236      -2.70037703       2.68910878       0.00000000
Si       2.72249885      -0.03948696       2.67545848       0.00000000
Si      -2.57475670       0.00723276      -2.82750339       0.00000000
Si      -2.65163573      -0.02208924       2.77604117       0.00000000
