10
Lattice="16.2900001489832 0.0 0.0 0.0 16.2900001489832 0.0 0.0 0.0 29.41874646731717" Properties=species:S:1:pos:R:3:initial_magmoms:R:1 pbc="T T T"
Si      -1.42894415       1.32120046       1.32578523       0.00000000
Si       1.39116438      -1.33405327       1.36217622       0.00000000
Si       1.37410875       1.39580866      -1.32260800       0.00000000
Si      -1.37932481      -1.37055916      -1.34537811       0.00000000
Si       2.67906809      -2.67828779      -0.08693240       0.00000000
Si      -0.04573092       2.67906971       2.68769668       0.00000000
Si      -2.65207881       0.05970285      -2.72491139       0.00000000
Si       2.65163573       0.02208924      -2.77604117       0.00000000
Si       0.03298073      -2.78073561       2.64671636       0.00000000
Si      -2.72795763      -0.13378977       2.70790736       0.00000000
