10
Lattice="16.2900001489832 0.0 0.0 0.0 16.2900001489832 0.0 0.0 0.0 29.41874646731717" Properties=species:S:1:pos:R:3:initial_magmoms:R:1 pbc="T T T"
Si      -1.24669000      -1.32641326       1.49762013       0.00000000
Si      -0.86949505       2.20182158      -0.12338222       0.00000000
Si       2.14928796       0.54107235       0.84334720       0.00000000
Si       0.18612954      -0.94881106      -2.19752152       0.00000000
H        2.65148423      -0.45770013       1.84331982       0.00000000
H       -2.70984152       0.82934020      -2.34440932       0.00000000
Si      -3.53875818      -0.77773348       1.19084144       0.00000000
Si       1.01416654       0.83771326      -3.59947189       0.00000000
Si      -1.89636779       2.65463471       2.03318841       0.00000000
Si       0.85230910       3.65179449      -0.86723523       0.00000000
