10
Lattice="16.2900001489832 0.0 0.0 0.0 16.2900001489832 0.0 0.0 0.0 29.41874646731717" Properties=species:S:1:pos:R:3:initial_magmoms:R:1 pbc="T T T"
Si       0.42507126       0.76419649       2.16124821       0.00000000
Si       1.33033915       0.29253582      -1.90754094       0.00000000
Si      -0.68937652      -2.22371534       0.39597633       0.00000000
Si      -1.26200260       1.92476126      -0.77415431       0.00000000
Si      -0.42772653       1.48786345      -2.93228414       0.00000000
Si      -1.66276919       0.09106110       3.07596529       0.00000000
H       -3.23370187      -0.87244354      -1.06078116       0.00000000
Si      -2.54666459      -1.81281638       1.84546738       0.00000000
Si       0.98697853       3.01104363       1.84558506       0.00000000
Si       0.77076136      -2.90724375       2.19708024       0.00000000
