10
Lattice="16.2900001489832 0.0 0.0 0.0 16.2900001489832 0.0 0.0 0.0 29.41874646731717" Properties=species:S:1:pos:R:3:initial_magmoms:R:1 pbc="T T T"
Si       1.23225706      -1.48677202       1.24220657       0.00000000
Si      -1.17749008       1.05770971       1.72193807       0.00000000
Si      -1.41245704      -1.41749065      -1.21681819       0.00000000
Si       1.52640559       1.46399860      -1.09114131       0.00000000
Si       2.26067735       0.03901455       2.63474293       0.00000000
Si      -2.35602272       2.60771951       0.40283090       0.00000000
Si      -2.47246364       0.19285731      -2.52671730       0.00000000
Si       0.66156949       1.79427836       2.98979778       0.00000000
Si       0.24377985      -2.64360638      -2.38853744       0.00000000
Si      -0.44737227      -2.48973104       2.57263996       0.00000000
