10
Lattice="16.2900001489832 0.0 0.0 0.0 16.2900001489832 0.0 0.0 0.0 29.41874646731717" Properties=species:S:1:pos:R:3:initial_magmoms:R:1 pbc="T T T"
H        0.46252197      -1.30787524       0.61923519       0.00000000
H        1.25354809       0.36828432      -0.78612774       0.00000000
Si      -1.46347732      -0.85421503      -1.75218054       0.00000000
Si      -0.16293258       1.97373421       1.42978050       0.00000000
H       -2.05662881      -0.37048347       1.81054733       0.00000000
H       -0.32936751      -0.84216043       3.35238383       0.00000000
Si       2.42326784       2.48594525      -1.31740089       0.00000000
H        2.82049950      -0.42639075      -2.39586271       0.00000000
Si       1.02884383       3.68315274       0.23079007       0.00000000
Si      -3.00968504      -2.29877966      -0.69487079       0.00000000
