10
Lattice="16.2900001489832 0.0 0.0 0.0 16.2900001489832 0.0 0.0 0.0 29.41874646731717" Properties=species:S:1:pos:R:3:initial_magmoms:R:1 pbc="T T T"
Si       1.34485354       1.29132460       1.44022121       0.00000000
Si      -1.29550299      -1.33286410       1.45469523       0.00000000
Si       1.42636870      -1.37166688      -1.29244496       0.00000000
Si      -1.26018627       1.45220464      -1.39800237       0.00000000
Si      -2.55483289      -2.69935076       0.01901628       0.00000000
Si      -2.77169466       0.13906773      -2.55587598       0.00000000
Si       2.65756691       2.68320737       0.10097985       0.00000000
Si       2.76309354      -2.63243144       0.15816695       0.00000000
Si      -0.02857266       2.68838759       2.73243965       0.00000000
Si      -2.71717202       0.02591739       2.76600644       0.00000000
