10
Lattice="16.2900001489832 0.0 0.0 0.0 16.2900001489832 0.0 0.0 0.0 29.41874646731717" Properties=species:S:1:pos:R:3:initial_magmoms:R:1 pbc="T T T"
Si       1.15836562      -1.47261601       1.39135961       0.00000000
Si      -1.28746387       1.32688567       1.49067730       0.00000000
Si       1.34895862       1.39220857      -1.38465214       0.00000000
Si      -1.26190486      -1.44943534      -1.47623270       0.00000000
H        2.99651295       1.75470995       0.84699513       0.00000000
Si      -2.63956972       2.60286509      -0.01873974       0.00000000
Si      -2.83367159      -0.11767896       2.54798705       0.00000000
H        1.42956154       2.54938502       2.45673010       0.00000000
Si      -0.00019548       2.53526159      -2.95946706       0.00000000
Si       2.67939551      -0.03399723      -2.84046823       0.00000000
