10
Lattice="16.2900001489832 0.0 0.0 0.0 16.2900001489832 0.0 0.0 0.0 29.41874646731717" Properties=species:S:1:pos:R:3:initial_magmoms:R:1 pbc="T T T"
Si       0.43039809       1.47204586       1.75318078       0.00000000
Si       1.93694618      -1.00036891      -0.87938517       0.00000000
Si      -0.71716726      -2.06254208       1.08572826       0.00000000
Si      -1.44801811       0.92520685      -1.74941518       0.00000000
Si      -2.02228949      -2.77180869      -0.70755027       0.00000000
Si      -2.99345043      -0.89080237      -1.73700047       0.00000000
Si       2.77006566      -2.61200378       0.54924800       0.00000000
Si       1.45977949      -2.33513894      -2.69110925       0.00000000
Si       1.05339286       0.32676111       3.70205506       0.00000000
Si       1.68485843       3.37593963       1.16612969       0.00000000
