10
Lattice="16.2900001489832 0.0 0.0 0.0 16.2900001489832 0.0 0.0 0.0 29.41874646731717" Properties=species:S:1:pos:R:3:initial_magmoms:R:1 pbc="T T T"
H        1.01002888       0.30550266      -1.08316883       0.00000000
Si      -1.19445612       1.98353558       0.61276307       0.00000000
Si       1.31453785      -0.75044773       1.85705837       0.00000000
Si      -1.63680292      -1.60622659      -0.74658895       0.00000000
H       -1.54423826      -1.37189494       1.95016870       0.00000000
H        0.89062318      -0.42505497      -3.03992733       0.00000000
H       -0.12628008       0.74953549      -3.21211525       0.00000000
H        1.81718210       3.04798935      -0.18257274       0.00000000
Si       2.12941253       1.28469457       2.60467697       0.00000000
Si       2.92843704      -2.04928202       0.76426961       0.00000000
