10
Lattice="16.2900001489832 0.0 0.0 0.0 16.2900001489832 0.0 0.0 0.0 29.41874646731717" Properties=species:S:1:pos:R:3:initial_magmoms:R:1 pbc="T T T"
Si      -0.53137980      -0.97363702      -2.11609043       0.00000000
Si       1.63680292       1.60622659       0.74658895       0.00000000
Si       0.85573488      -2.09380259       0.90815670       0.00000000
Si      -1.99855496       1.39944133       0.41745201       0.00000000
H        0.09256467       0.23433165       2.69675765       0.00000000
H        2.64683180       1.91172926      -0.33657988       0.00000000
Si      -2.25318395      -2.42360993      -1.37223743       0.00000000
H        2.52742610       1.18117162      -2.29333838       0.00000000
H        1.51052284       2.35576208      -2.46552630       0.00000000
Si      -1.52138827       2.73421137       2.22917609       0.00000000
