10
Lattice="16.2900001489832 0.0 0.0 0.0 16.2900001489832 0.0 0.0 0.0 29.41874646731717" Properties=species:S:1:pos:R:3:initial_magmoms:R:1 pbc="T T T"
Si      -0.72865171      -2.02043243      -0.97255434       0.00000000
Si      -1.04674654       0.89329474       1.92095589       0.00000000
Si       2.18057942      -0.52299045       0.91053962       0.00000000
Si      -0.43556202       1.62392731      -1.74991530       0.00000000
H       -2.61698852      -0.72539371      -0.13494379       0.00000000
H       -1.74855233      -1.64470357      -1.99247286       0.00000000
Si       0.06972120       2.87314878       1.29583694       0.00000000
Si       1.31919679      -2.55697616      -2.01185981       0.00000000
H        0.46612206      -2.11359494       2.76550926       0.00000000
H        1.81850159      -1.30624624      -2.74547510       0.00000000
