10
Lattice="16.290000149 0.0 0.0 0.0 16.290000149 0.0 0.0 0.0 29.1751946751" Properties=species:S:1:pos:R:3:initial_magmoms:R:1 pbc="T T T"
Si       1.61262856      -0.17370027      -1.67836142       0.00000000
Si      -0.43476381       2.28967029      -0.30240089       0.00000000
Si       0.24935103      -0.51324903       2.29831476       0.00000000
Si      -1.89698681      -1.30114747      -0.63275162       0.00000000
H        1.32906853      -2.22676157       1.51074993       0.00000000
H       -2.78106141      -0.45001125      -1.52122383       0.00000000
Si      -1.49648086       1.02923479       2.74995174       0.00000000
Si       0.04991256      -0.95101021      -3.27246489       0.00000000
Si      -2.33034968       2.27337215       1.03633209       0.00000000
Si      -0.86618818      -2.78791950      -2.10504865       0.00000000
