10
Lattice="16.290000149 0.0 0.0 0.0 16.290000149 0.0 0.0 0.0 29.1751946751" Properties=species:S:1:pos:R:3:initial_magmoms:R:1 pbc="T T T"
Si       1.07308747      -1.41641551      -1.50465231       0.00000000
Si      -1.54820161       1.31554783      -1.19101897       0.00000000
Si      -1.05050953      -1.77220541       1.17567282       0.00000000
Si       2.13939830       0.97407685       0.66560289       0.00000000
Si       0.20709477       0.79876387       3.37618270       0.00000000
Si       2.35662545      -2.71604801      -0.06182224       0.00000000
Si      -0.20991294       2.69382845      -2.50976695       0.00000000
Si      -1.40944339      -0.89238250       3.31080109       0.00000000
Si       2.43501293      -0.10766061      -2.81111753       0.00000000
H        3.05318586      -1.88819021       0.98171613       0.00000000
