10
Lattice="16.290000149 0.0 0.0 0.0 16.290000149 0.0 0.0 0.0 29.1751946751" Properties=species:S:1:pos:R:3:initial_magmoms:R:1 pbc="T T T"
H       -1.03011445      -1.11070108       0.21755943       0.00000000
Si       1.48194693      -1.07461873      -1.43410669       0.00000000
Si       1.16416323      -0.16017957       2.01632688       0.00000000
Si      -1.26519544       1.63543456      -1.15737997       0.00000000
H       -1.55186686       0.43000713       2.02569212       0.00000000
Si       0.00381186      -2.21786723       2.60592839       0.00000000
Si      -2.54495414      -0.05825304      -2.30994604       0.00000000
Si      -2.00637416      -0.85291183       2.68706460       0.00000000
Si       0.06349842      -2.51594165      -2.60233984       0.00000000
Si       3.04722372      -2.14982390      -0.07025387       0.00000000
