10
Lattice="16.290000149 0.0 0.0 0.0 16.290000149 0.0 0.0 0.0 29.1751946751" Properties=species:S:1:pos:R:3:initial_magmoms:R:1 pbc="T T T"
Si      -1.37189494      -1.40618539      -1.31212812       0.00000000
Si      -1.34654770       1.27887904       1.46045190       0.00000000
Si       1.33944526      -1.33692031       1.42118208       0.00000000
Si       1.34161183       1.41823999      -1.35968077       0.00000000
Si       2.67211388      -0.02210553      -2.67354482       0.00000000
Si       0.05976801      -2.77804776      -2.59629474       0.00000000
Si      -2.68102451      -2.69581583       0.15780863       0.00000000
Si      -2.77954644       2.59882517       0.17779364       0.00000000
Si      -2.72072324      -0.04383639      -2.68830163       0.00000000
Si       2.68833872       2.75105523       0.02929190       0.00000000
