10
Lattice="16.290000149 0.0 0.0 0.0 16.290000149 0.0 0.0 0.0 29.1751946751" Properties=species:S:1:pos:R:3:initial_magmoms:R:1 pbc="T T T"
Si       0.65396206      -0.42371919       2.13114878       0.00000000
Si      -1.07127928      -1.75959695      -1.06407770       0.00000000
Si      -1.70111585       1.59775579      -0.01592966       0.00000000
Si       1.78699673       0.58815046      -1.43991256       0.00000000
Si      -0.30856518       3.03360528      -1.19209845       0.00000000
H        3.08439750       1.13896423      -0.52042712       0.00000000
H       -0.55858411      -3.04205979       1.33065145       0.00000000
Si      -1.99959752      -0.71680888      -2.89814714       0.00000000
Si       0.76115026       1.92218744      -3.05744370       0.00000000
Si      -1.25392276      -1.21399597       3.25266660       0.00000000
