10
Lattice="16.290000149 0.0 0.0 0.0 16.290000149 0.0 0.0 0.0 29.1751946751" Properties=species:S:1:pos:R:3:initial_magmoms:R:1 pbc="T T T"
Si       1.36275625      -1.34099281       1.36274417       0.00000000
Si       1.35584929       1.37099899      -1.34564750       0.00000000
Si      -1.35627283       1.35247726       1.36504901       0.00000000
Si      -1.33524244      -1.40434462      -1.33829535       0.00000000
Si       2.70730028      -2.67121793      -0.02325263       0.00000000
Si      -2.76824118      -0.08439849      -2.62095361       0.00000000
Si       0.00858483      -2.73429281       2.68569337       0.00000000
Si      -2.72464913       2.70112637       0.02392366       0.00000000
Si       0.00969255       2.71604801      -2.71092991       0.00000000
Si       2.71360451       2.71912682       0.02173552       0.00000000
