10
Lattice="16.290000149 0.0 0.0 0.0 16.290000149 0.0 0.0 0.0 29.1751946751" Properties=species:S:1:pos:R:3:initial_magmoms:R:1 pbc="T T T"
Si      -1.25449291       1.10689248      -1.60224334       0.00000000
Si      -1.89558587      -0.01629815       1.33873298       0.00000000
Si       1.57369546       1.68701196       0.44340461       0.00000000
Si       0.43476381      -2.28967029       0.30240089       0.00000000
H        1.83894554       0.58127933      -2.37500672       0.00000000
H       -2.07436862       1.37134434       1.94910723       0.00000000
Si      -1.06171705      -1.26043550       3.05235263       0.00000000
Si       2.04739238      -2.46337056      -1.37596053       0.00000000
Si       0.84344734       2.32126312       2.62240946       0.00000000
Si      -2.58706379       2.65380718      -0.44562192       0.00000000
