10
Lattice="16.290000149 0.0 0.0 0.0 16.290000149 0.0 0.0 0.0 29.1751946751" Properties=species:S:1:pos:R:3:initial_magmoms:R:1 pbc="T T T"
Si       1.24931269      -1.37046142       1.41319391       0.00000000
Si      -1.28739871       1.44897922       1.32794108       0.00000000
Si       1.90788482       0.79027678      -1.12151782       0.00000000
Si      -1.83899441      -0.88135417      -1.18619048       0.00000000
H        0.69533866      -1.82806382      -1.92201514       0.00000000
Si       1.25392276       1.21399597      -3.25266660       0.00000000
Si       2.66910023       0.05856255       2.64854168       0.00000000
Si      -2.71479368       0.05883948       2.60956362       0.00000000
Si       2.74742256      -2.60609703       0.13350569       0.00000000
Si      -3.47198547       0.85405213      -1.27028914       0.00000000
