10
Lattice="16.290000149 0.0 0.0 0.0 16.290000149 0.0 0.0 0.0 29.1751946751" Properties=species:S:1:pos:R:3:initial_magmoms:R:1 pbc="T T T"
Si       1.42540759      -1.36023130      -1.26944190       0.00000000
Si       1.35654976       1.34892604       1.35431254       0.00000000
Si      -1.32484942      -1.38725641       1.38208732       0.00000000
Si      -1.33944526       1.33692031      -1.42118208       0.00000000
Si       0.03521898      -2.70493823      -2.54491722       0.00000000
Si      -2.68599296       2.61579935       0.03926981       0.00000000
Si       2.69734709       2.70298343      -0.03005045       0.00000000
Si       2.70202232      -0.03129309       2.70917940       0.00000000
Si       0.01200573       2.67915116       2.74030934       0.00000000
Si      -2.71134020      -0.06926508      -2.73331021       0.00000000
