10
Lattice="16.290000149 0.0 0.0 0.0 16.290000149 0.0 0.0 0.0 29.1751946751" Properties=species:S:1:pos:R:3:initial_magmoms:R:1 pbc="T T T"
Si      -1.30668607       0.44994609      -0.62443669       0.00000000
H        0.61067953      -0.15434775      -2.30014317       0.00000000
Si       1.78649174      -0.68093830      -1.50313520       0.00000000
Si       1.07414632      -2.52524324      -0.10310514       0.00000000
Si      -2.55901241       0.68949055       1.32376611       0.00000000
Si      -2.27289485      -1.55769868      -1.48889771       0.00000000
Si       0.44675325      -2.18297405       2.22183695       0.00000000
Si      -1.33358086      -0.63112348       2.84288932       0.00000000
Si      -1.04409127       2.48236796      -1.81148784       0.00000000
Si       3.06625044       1.01274931      -0.35056914       0.00000000
