10
Lattice="16.290000149 0.0 0.0 0.0 16.290000149 0.0 0.0 0.0 29.1751946751" Properties=species:S:1:pos:R:3:initial_magmoms:R:1 pbc="T T T"
Si       1.36216981       1.35936793       1.32793816       0.00000000
Si       1.36731745      -1.34513047      -1.34698956       0.00000000
Si      -1.32856354       1.37158543      -1.37140920       0.00000000
Si      -1.35578413      -1.36948402       1.36332767       0.00000000
Si      -0.00272043      -2.69195510      -2.68359276       0.00000000
Si       0.00454491       2.69749370       2.68563502       0.00000000
Si      -2.70730028       0.00850338      -2.67577380       0.00000000
Si       2.69650001      -0.00741195       2.69144088       0.00000000
Si      -2.71661816       2.68426622      -0.01485017       0.00000000
Si       2.69141753      -2.72590346       0.01662986       0.00000000
