10
Lattice="16.290000149 0.0 0.0 0.0 16.290000149 0.0 0.0 0.0 29.1751946751" Properties=species:S:1:pos:R:3:initial_magmoms:R:1 pbc="T T T"
Si      -1.37044513       1.34428339       1.34054185       0.00000000
Si      -1.38520387      -1.35120664      -1.32429126       0.00000000
Si       1.36360333      -1.36391284       1.33499856       0.00000000
Si       1.37086867       1.35681040      -1.33832453       0.00000000
Si       0.00791694       2.67950954       2.68540162       0.00000000
Si      -0.05486472      -2.77111473      -2.61010044       0.00000000
Si      -0.00210141      -2.71078797       2.68172554       0.00000000
Si       2.69848739      -0.00228060      -2.70369447       0.00000000
Si      -2.72082098      -0.02052540       2.69631314       0.00000000
Si      -2.71617833       2.70326036      -0.02870839       0.00000000
