10
Lattice="16.290000149 0.0 0.0 0.0 16.290000149 0.0 0.0 0.0 29.1751946751" Properties=species:S:1:pos:R:3:initial_magmoms:R:1 pbc="T T T"
Si      -0.35893386       0.87982291       2.13512827       0.00000000
Si      -1.86150719      -0.92882323      -1.10509802       0.00000000
Si       1.05050953       1.77220541      -1.17567282       0.00000000
Si       1.57802860      -1.79683589      -0.09869968       0.00000000
Si       2.12359700       0.35578989      -2.68032513       0.00000000
Si      -0.68633029      -2.38309670      -2.52120362       0.00000000
Si       1.25760430       2.57096927       2.20050988       0.00000000
Si       2.21801384      -2.18329985       2.05279587       0.00000000
Si       3.40713498      -0.94384261      -1.23749506       0.00000000
Si      -3.16358319      -2.16943706       0.39301905       0.00000000
