10
Lattice="16.290000149 0.0 0.0 0.0 16.290000149 0.0 0.0 0.0 29.1751946751" Properties=species:S:1:pos:R:3:initial_magmoms:R:1 pbc="T T T"
Si       1.32035338       1.27138564      -1.49193193       0.00000000
Si       1.26519544      -1.63543456       1.15737997       0.00000000
Si      -0.99479773       1.77658742       1.25847202       0.00000000
Si      -1.27975870      -1.69368761      -1.15256607       0.00000000
H        0.23508099      -2.74613565       1.37493940       0.00000000
H       -3.06625044      -1.01274931       0.35056914       0.00000000
H       -2.45557091      -1.16709706      -1.94957403       0.00000000
H       -0.28667142      -1.20542743       3.18307209       0.00000000
H       -1.83739799       0.68119894      -2.92539677       0.00000000
Si      -2.53065152       2.76482028      -0.24670545       0.00000000
