10
Lattice="16.290000149 0.0 0.0 0.0 16.290000149 0.0 0.0 0.0 29.1751946751" Properties=species:S:1:pos:R:3:initial_magmoms:R:1 pbc="T T T"
Si      -1.41960835       1.37028223      -1.25485430       0.00000000
Si      -1.30207600      -1.24061383       1.49811707       0.00000000
Si       1.17517690      -1.45427347      -1.41610560       0.00000000
Si       1.86150719       0.92882323       1.10509802       0.00000000
Si       3.43953579      -0.86801266       1.00639834       0.00000000
Si      -0.04513959       2.69148269      -2.61891135       0.00000000
Si       2.56227041      -2.74831851      -0.05989667       0.00000000
Si       2.56469762      -0.11904732      -2.75002467       0.00000000
Si       0.14156010      -2.59219514       2.78310935       0.00000000
Si      -2.77733100      -0.01244556      -2.60493643       0.00000000
