10
Lattice="16.290000149 0.0 0.0 0.0 16.290000149 0.0 0.0 0.0 29.1751946751" Properties=species:S:1:pos:R:3:initial_magmoms:R:1 pbc="T T T"
Si      -1.43412274       1.34624797      -1.26171047       0.00000000
Si      -1.38020284      -1.34421823       1.33383155       0.00000000
Si       1.34646625       1.38818983       1.33943319       0.00000000
Si       1.35413884      -1.32929659      -1.40102202       0.00000000
Si      -0.10055817       2.68605812      -2.59065226       0.00000000
Si      -0.01182654      -2.69286734       2.67495690       0.00000000
Si       2.70029558      -2.67434561      -0.03573961       0.00000000
Si       2.70690932       0.03484431       2.69106161       0.00000000
Si      -2.73070902       0.03318273       2.68152132       0.00000000
Si      -0.06791301      -2.78915754      -2.62601551       0.00000000
