10
Lattice="16.290000149 0.0 0.0 0.0 16.290000149 0.0 0.0 0.0 29.1751946751" Properties=species:S:1:pos:R:3:initial_magmoms:R:1 pbc="T T T"
Si      -1.88367788      -1.34342002      -0.39439028       0.00000000
Si       0.52310448       1.25383968      -1.93160211       0.00000000
H       -0.89661790      -0.98919397       2.06490358       0.00000000
Si       1.93435607      -1.49019292       0.31366252       0.00000000
Si      -1.61427385       1.53073222       1.07501840       0.00000000
H       -2.79342552      -1.41496570       0.82148596       0.00000000
Si       0.19518678       2.85738006       1.68148317       0.00000000
Si      -2.77474089       0.07881102      -1.98411746       0.00000000
Si      -0.01254330      -1.84033019       2.95337578       0.00000000
Si       1.54634455      -0.37382292      -3.25233400       0.00000000
