10
Lattice="16.290000149 0.0 0.0 0.0 16.290000149 0.0 0.0 0.0 29.1751946751" Properties=species:S:1:pos:R:3:initial_magmoms:R:1 pbc="T T T"
Si      -1.21042846      -1.12668646      -1.67786545       0.00000000
Si       0.57671488      -1.76885781       1.48382123       0.00000000
Si      -2.00564111       0.86557730       0.94618074       0.00000000
Si       1.43960759       1.39782048      -1.38319598       0.00000000
H        0.46540530       2.25594511       1.97667779       0.00000000
Si      -2.73639422       2.19192541      -0.84812291       0.00000000
Si      -2.48943782      -2.62356154      -0.45329500       0.00000000
Si       0.30012696      -2.39414947      -2.87244379       0.00000000
Si      -3.51267789      -0.99589893       0.86743689       0.00000000
Si      -2.63425592       0.47274395      -2.65155839       0.00000000
