10
Lattice="16.290000149 0.0 0.0 0.0 16.290000149 0.0 0.0 0.0 29.1751946751" Properties=species:S:1:pos:R:3:initial_magmoms:R:1 pbc="T T T"
Si      -1.30766347      -1.30946390      -1.45330397       0.00000000
Si      -1.32348106       1.39427903       1.36531159       0.00000000
Si       1.26680815      -1.39696362       1.42401208       0.00000000
Si       1.36516717       1.35945101      -1.37666074       0.00000000
Si       2.65292426       0.02351787       2.69762603       0.00000000
Si      -2.69838965      -2.65880333      -0.15246957       0.00000000
Si       2.68939757      -2.68196771       0.01549203       0.00000000
Si      -2.67204872       2.72619831      -0.04236238       0.00000000
Si       0.07522722       2.76557124       2.68085029       0.00000000
Si      -2.68253948       0.03629412      -2.78684377       0.00000000
