10
Lattice="16.290000149 0.0 0.0 0.0 16.290000149 0.0 0.0 0.0 29.1751946751" Properties=species:S:1:pos:R:3:initial_magmoms:R:1 pbc="T T T"
Si       1.41889159       1.31240386       1.30798233       0.00000000
Si       1.38155491      -1.34389243      -1.32079024       0.00000000
Si      -1.34289874      -1.35268903       1.36534076       0.00000000
Si      -1.35979147       1.39843135      -1.30252657       0.00000000
Si       0.00403992       2.68112225       2.51656477       0.00000000
Si       0.01081656      -2.70431921      -2.64540243       0.00000000
Si      -2.71316468       0.04546539      -2.66141961       0.00000000
Si       2.73572633       0.04940757      -2.64373944       0.00000000
Si       0.01669725       2.74287765      -2.64143460       0.00000000
Si      -2.72038115      -2.69127092       0.03034220       0.00000000
