10
Lattice="16.290000149 0.0 0.0 0.0 16.290000149 0.0 0.0 0.0 29.1751946751" Properties=species:S:1:pos:R:3:initial_magmoms:R:1 pbc="T T T"
Si       1.34796493       1.36179514       1.35046141       0.00000000
Si      -1.34235954       1.35803215      -1.36429045       0.00000000
Si       1.35905842      -1.35513253      -1.35428336       0.00000000
Si      -1.36740053      -1.36603054       1.34398452       0.00000000
Si      -0.03345966      -2.69834078      -2.68379698       0.00000000
Si       2.69055416      -0.02143764       2.69415418       0.00000000
Si      -2.67753487      -0.01876608      -2.70941280       0.00000000
Si      -0.04184901       2.71220357       2.68271750       0.00000000
Si       2.69687468       2.70954830      -0.02704541       0.00000000
Si       2.68856678      -2.72517041       0.01838037       0.00000000
