10
Lattice="16.290000149 0.0 0.0 0.0 16.290000149 0.0 0.0 0.0 29.1751946751" Properties=species:S:1:pos:R:3:initial_magmoms:R:1 pbc="T T T"
Si      -0.47759022       2.02992950      -1.05868029       0.00000000
Si       1.59376474       0.81282214       1.56166065       0.00000000
Si       1.29528307      -1.50174253      -1.32055684       0.00000000
Si      -1.86955445      -0.89705773       1.27656064       0.00000000
H       -2.78984172      -0.73440208      -1.26524067       0.00000000
H        1.03778704       1.18324045      -2.76618773       0.00000000
H       -1.07763238       1.93844486      -2.45908963       0.00000000
Si      -2.19343223       2.47195865       0.46607373       0.00000000
Si       2.22360131      -2.54453060       0.51351260       0.00000000
Si       3.29488059      -0.78493366       1.57759030       0.00000000
