10
Lattice="16.290000149 0.0 0.0 0.0 16.290000149 0.0 0.0 0.0 29.1751946751" Properties=species:S:1:pos:R:3:initial_magmoms:R:1 pbc="T T T"
Si      -1.48194693       1.07461873       1.43410669       0.00000000
Si      -1.41844851      -1.44132292      -1.16823315       0.00000000
Si       1.56527679      -1.07520517       1.36385283       0.00000000
Si       1.31783169       1.48590865      -1.26996705       0.00000000
H       -2.51206138      -0.03608235       1.65166612       0.00000000
Si       1.99095079       0.73679671       2.84954126       0.00000000
Si      -0.31778369       0.91443916       3.45043357       0.00000000
Si       0.01837838      -2.68245803      -2.53806689       0.00000000
Si      -2.71220032      -0.02428839      -2.52073682       0.00000000
Si       2.82211546       0.15346809      -2.52137867       0.00000000
