10
Lattice="16.290000149 0.0 0.0 0.0 16.290000149 0.0 0.0 0.0 29.1751946751" Properties=species:S:1:pos:R:3:initial_magmoms:R:1 pbc="T T T"
Si      -1.36744777      -1.35031069       1.34992459       0.00000000
Si       1.30455208       1.29503872       1.47555298       0.00000000
Si      -1.37129221       1.41209866      -1.30403784       0.00000000
Si       1.36337527      -1.34762284      -1.39054229       0.00000000
Si       2.66043395       2.63562428       0.16058319       0.00000000
Si       2.71220357      -2.70997184      -0.01436878       0.00000000
Si      -0.01681128      -2.67002876       2.75730680       0.00000000
Si      -2.73012257       0.02305035       2.69921899       0.00000000
Si      -2.71088408      -2.71979471      -0.01295087       0.00000000
Si      -2.78433570       0.11591964      -2.64751384       0.00000000
