10
Lattice="16.290000149 0.0 0.0 0.0 16.290000149 0.0 0.0 0.0 29.1751946751" Properties=species:S:1:pos:R:3:initial_magmoms:R:1 pbc="T T T"
H        0.89987590      -0.90547966       0.80829877       0.00000000
Si       1.33996654       1.29946960      -1.39959244       0.00000000
Si      -1.30232035      -1.45489249      -1.29161504       0.00000000
Si      -1.15430941       1.41929884       1.46138550       0.00000000
H       -1.11589759      -1.25600788       2.22277056       0.00000000
Si      -2.58300758       2.63011826       0.07428005       0.00000000
Si      -0.50344245      -2.56347913       2.65996085       0.00000000
Si      -2.67494672      -0.13950756      -2.66319930       0.00000000
Si      -0.01778868       2.65331522      -2.70331519       0.00000000
Si       2.71930601       2.64652229      -0.10088782       0.00000000
