10
Lattice="16.290000149 0.0 0.0 0.0 16.290000149 0.0 0.0 0.0 29.1751946751" Properties=species:S:1:pos:R:3:initial_magmoms:R:1 pbc="T T T"
H        0.69656041       0.82785781       1.04353836       0.00000000
Si      -1.82910638      -0.85299328       1.13879537       0.00000000
Si      -1.28353798       1.29963250      -1.44283008       0.00000000
Si       1.45319833      -1.43011540      -1.12978024       0.00000000
H        1.69445324       0.16389369       2.47904547       0.00000000
H        2.31262616       2.01218969       1.50322273       0.00000000
Si       2.62782137       2.35525709       0.07603056       0.00000000
Si      -2.35662545       2.71604801       0.06182224       0.00000000
Si      -1.18912114      -1.23945724       3.29029093       0.00000000
Si       0.09039321      -2.74913301      -2.51358890       0.00000000
