10
Lattice="16.290000149 0.0 0.0 0.0 16.290000149 0.0 0.0 0.0 29.1751946751" Properties=species:S:1:pos:R:3:initial_magmoms:R:1 pbc="T T T"
Si      -1.33092559      -1.35427894      -1.38482979       0.00000000
Si       1.33196815      -1.36856527       1.37085487       0.00000000
Si       1.35249355       1.35064301      -1.37342229       0.00000000
Si      -1.37148769       1.34060837       1.36440715       0.00000000
Si       0.00223173       2.72297778       2.67580298       0.00000000
Si      -2.69470811       2.70706245      -0.02672448       0.00000000
Si       2.70042102       0.00427287       2.70319849       0.00000000
Si       2.70362526      -2.70700055      -0.00904431       0.00000000
Si      -2.69219945      -2.71806146      -0.04492980       0.00000000
Si      -2.69136866      -0.00093342      -2.73645821       0.00000000
