10
Lattice="16.290000149 0.0 0.0 0.0 16.290000149 0.0 0.0 0.0 29.1751946751" Properties=species:S:1:pos:R:3:initial_magmoms:R:1 pbc="T T T"
Si      -1.32763092      -1.49120290       1.23924557       0.00000000
Si      -1.43297835       1.34275213      -1.29473679       0.00000000
Si       1.34569494      -1.36290286      -1.37307219       0.00000000
Si       1.38960301       1.35591445       1.35588800       0.00000000
H       -1.97734128       0.86824072       3.07343171       0.00000000
Si      -0.05375291       2.67499721      -2.68044184       0.00000000
Si       2.71759966      -2.70599708      -0.01747594       0.00000000
Si       2.72282875       2.70884783      -0.01843872       0.00000000
Si       2.70556135      -0.01383021      -2.72933946       0.00000000
Si      -2.69157634      -0.01953171      -2.75197941       0.00000000
