10
Lattice="16.290000149 0.0 0.0 0.0 16.290000149 0.0 0.0 0.0 29.1751946751" Properties=species:S:1:pos:R:3:initial_magmoms:R:1 pbc="T T T"
Si       1.29043517       1.41924997       1.30605676       0.00000000
Si      -1.31391883       1.31085631      -1.40283089       0.00000000
Si       1.40393249      -1.30885264      -1.32087776       0.00000000
Si      -1.32774904      -1.30986262       1.44414296       0.00000000
Si       0.00661374      -2.68064984      -2.63233194       0.00000000
Si       2.77322592      -2.54386271       0.12615354       0.00000000
Si      -2.88489387       2.44874540      -0.11098244       0.00000000
Si       2.73131174       0.09606213      -2.65955240       0.00000000
Si      -2.73725760      -2.66312180       0.12072696       0.00000000
Si       2.70228296       0.20033442       2.69491273       0.00000000
