10
Lattice="16.290000149 0.0 0.0 0.0 16.290000149 0.0 0.0 0.0 29.1751946751" Properties=species:S:1:pos:R:3:initial_magmoms:R:1 pbc="T T T"
Si       0.97946884      -1.85492603       0.89970465       0.00000000
Si      -1.48191760      -1.01721277      -1.46987548       0.00000000
Si      -1.60674787       0.79009759       1.52402464       0.00000000
Si       1.66265516       1.52015023      -0.73121790       0.00000000
H        0.91051327       2.07511796       1.76547856       0.00000000
H        0.26336043       2.50344722       1.72425401       0.00000000
H       -0.88472620       0.87262273       2.84633199       0.00000000
Si      -1.94761613       2.73935901       0.15188606       0.00000000
Si       0.17632296       3.32146587      -0.85602939       0.00000000
Si      -0.04942386      -2.24070581      -2.75737682       0.00000000
