10
Lattice="16.290000149 0.0 0.0 0.0 16.290000149 0.0 0.0 0.0 29.1751946751" Properties=species:S:1:pos:R:3:initial_magmoms:R:1 pbc="T T T"
Si       1.33037173       1.33224508      -1.39842543       0.00000000
Si      -1.19909062       1.47294181       1.42911774       0.00000000
Si       1.47189925      -1.20933703       1.45452933       0.00000000
Si      -1.56509434      -1.12311406      -1.46652034       0.00000000
H        1.82786834      -3.01775511      -0.79484900       0.00000000
Si      -2.52555275       0.09036063       2.80494990       0.00000000
Si      -0.17216901       2.64228689      -2.69552541       0.00000000
Si       2.92369665       2.46076742      -0.05759183       0.00000000
Si      -2.59739165       2.89784442       0.20445976       0.00000000
H        2.02308770       3.20344482       0.92027317       0.00000000
