10
Lattice="16.290000149 0.0 0.0 0.0 16.290000149 0.0 0.0 0.0 29.1751946751" Properties=species:S:1:pos:R:3:initial_magmoms:R:1 pbc="T T T"
Si       1.37371942       1.38236941       1.31139583       0.00000000
Si       1.37148769      -1.34060837      -1.36440715       0.00000000
Si      -1.32322042       1.36645408      -1.39113163       0.00000000
Si      -1.36516717      -1.35945101       1.37666074       0.00000000
Si      -2.67283064      -2.66891491      -0.07664324       0.00000000
Si       2.67335192      -0.00089595       2.68747306       0.00000000
Si      -2.68345172       2.71723718      -0.03544786       0.00000000
Si       2.70345584      -2.70917363       0.00644772       0.00000000
Si      -2.68864823       0.03482802       2.74197232       0.00000000
Si      -2.68200191       0.02371824      -2.75691002       0.00000000
