10
Lattice="16.290000149 0.0 0.0 0.0 16.290000149 0.0 0.0 0.0 29.1751946751" Properties=species:S:1:pos:R:3:initial_magmoms:R:1 pbc="T T T"
Si       0.45944316      -0.41798511       2.21352202       0.00000000
Si       1.82011430       1.30168504      -0.64124160       0.00000000
Si      -1.65055169       1.65074717      -0.09464433       0.00000000
Si      -0.67135978      -1.87639625      -1.29774183       0.00000000
H        1.81628615       0.15820848       2.48873163       0.00000000
Si       0.78786586       2.12794643      -2.59428749       0.00000000
Si      -2.08320757      -0.65748070      -2.68659780       0.00000000
Si      -3.41598045       0.61913404      -1.24297999       0.00000000
Si       3.63757332      -0.15957684      -0.80704424       0.00000000
Si      -0.74029906       3.39040515      -1.37668991       0.00000000
