10
Lattice="16.290000149 0.0 0.0 0.0 16.290000149 0.0 0.0 0.0 29.1751946751" Properties=species:S:1:pos:R:3:initial_magmoms:R:1 pbc="T T T"
Si      -0.08281836       0.69239017       2.22968216       0.00000000
Si       0.72971056      -2.19007812      -0.40235511       0.00000000
Si       1.93881953       1.02814336      -0.90087166       0.00000000
Si      -2.20364606       0.38144664      -0.80465187       0.00000000
H        2.45151470      -0.25431948       1.49385749       0.00000000
Si       2.63029745      -1.64196197       0.88348325       0.00000000
Si      -2.15433623       2.67561623      -0.13782362       0.00000000
Si       1.46192977      -1.84541918      -2.66395785       0.00000000
Si       1.01050129       2.07093143      -2.73494110       0.00000000
Si       0.24076620       0.02534724      -3.61547765       0.00000000
