10
Lattice="16.290000149 0.0 0.0 0.0 16.290000149 0.0 0.0 0.0 29.1751946751" Properties=species:S:1:pos:R:3:initial_magmoms:R:1 pbc="T T T"
Si       1.32517522       1.33589714       1.33688328       0.00000000
Si      -1.41692050       1.34337099      -1.25409574       0.00000000
Si       1.23155659      -1.20085988      -1.59623909       0.00000000
Si      -1.46033335      -1.43634812       1.21522271       0.00000000
Si      -2.45635283      -0.51037564      -2.20637118       0.00000000
Si      -0.71052094      -2.05285947      -2.65800815       0.00000000
Si       2.62425201       2.62709468      -0.13448889       0.00000000
Si       2.64194660      -0.09854815       2.61350227       0.00000000
Si       2.53210133      -2.73071895      -0.27808337       0.00000000
Si      -0.11828169       2.66666309       2.61849123       0.00000000
