10
Lattice="16.290000149 0.0 0.0 0.0 16.290000149 0.0 0.0 0.0 29.1751946751" Properties=species:S:1:pos:R:3:initial_magmoms:R:1 pbc="T T T"
H        1.07971750      -1.71351254      -0.78756483       0.00000000
Si      -0.24935103       0.51324903      -2.29831476       0.00000000
Si       1.94207753       0.85199959       1.06176907       0.00000000
Si      -1.74583190       1.54248382       0.45163697       0.00000000
Si      -0.83391769      -1.99749611       1.09133229       0.00000000
Si       0.71052094       2.05285947       2.65800815       0.00000000
Si      -2.17186427      -0.84334960       2.64823738       0.00000000
Si       1.98032645      -2.45618993      -1.76542983       0.00000000
Si      -2.14633784      -0.78789844      -2.93106639       0.00000000
Si      -0.70639957       3.39623046       1.40391241       0.00000000
