10
Lattice="16.290000149 0.0 0.0 0.0 16.290000149 0.0 0.0 0.0 29.1751946751" Properties=species:S:1:pos:R:3:initial_magmoms:R:1 pbc="T T T"
Si      -1.36148563      -1.35200485       1.34941110       0.00000000
Si      -1.38963475       1.34814738      -1.33190599       0.00000000
Si       1.30864087      -1.36609570      -1.39597471       0.00000000
Si       1.36111096       1.34336464       1.37759434       0.00000000
Si      -0.06224409       2.70378164       2.67629896       0.00000000
Si       2.66831831      -2.71723718      -0.05210690       0.00000000
Si       0.01228266      -2.70299972       2.69651737       0.00000000
Si      -0.04424364       2.70280424      -2.69742180       0.00000000
Si       2.69772176       2.70510113       0.00819823       0.00000000
Si       2.69822675      -0.01330893      -2.71769856       0.00000000
