10
Lattice="16.290000149 0.0 0.0 0.0 16.290000149 0.0 0.0 0.0 29.1751946751" Properties=species:S:1:pos:R:3:initial_magmoms:R:1 pbc="T T T"
Si       0.52425293      -0.67544857       2.22953920       0.00000000
Si      -2.01018602       1.36495540       0.08113622       0.00000000
Si       1.16035137       2.05768766      -0.58960151       0.00000000
Si      -1.22284144      -1.58775373      -1.41280880       0.00000000
Si       2.19375803      -1.41905449      -1.04467620       0.00000000
H       -1.03392631       1.10716615      -2.38836896       0.00000000
H       -2.66553272      -1.30152214      -0.97380965       0.00000000
H       -1.55567872       2.64787436      -0.58023627       0.00000000
Si      -0.00381186       2.21786723      -2.60592839       0.00000000
H        3.39081240      -1.05318109      -0.15524121       0.00000000
