10
Lattice="16.290000149 0.0 0.0 0.0 16.290000149 0.0 0.0 0.0 29.1751946751" Properties=species:S:1:pos:R:3:initial_magmoms:R:1 pbc="T T T"
Si      -1.23155659       1.20085988       1.59623909       0.00000000
Si      -1.94207753      -0.85199959      -1.06176907       0.00000000
Si       1.30054474      -1.52985907       1.31815572       0.00000000
Si       1.47837355       1.30746832      -1.37243617       0.00000000
H       -0.86236003      -2.56551212      -1.84933390       0.00000000
Si      -2.64847709       2.54423087       0.34214334       0.00000000
Si       2.64904399      -0.28419534      -2.65906225       0.00000000
Si       2.82482612       2.52095246       0.10951785       0.00000000
Si      -3.68790942       0.69048424      -0.61013209       0.00000000
Si       2.69077245      -0.24267213       2.75238203       0.00000000
