10
Lattice="16.290000149 0.0 0.0 0.0 16.290000149 0.0 0.0 0.0 29.1751946751" Properties=species:S:1:pos:R:3:initial_magmoms:R:1 pbc="T T T"
H        1.19705437       0.36587340       0.88943498       0.00000000
Si       0.84965383       1.48709782      -1.63150606       0.00000000
Si      -0.77019935      -2.11475153       1.17683983       0.00000000
Si       0.54232669      -2.38246139      -0.73579841       0.00000000
Si      -2.19375803       1.41905449       1.04467620       0.00000000
H        2.59941161      -1.66457738       1.34634771       0.00000000
Si      -3.41659947      -0.16869924      -0.36813261       0.00000000
H       -1.88638853      -1.57087729      -2.46994281       0.00000000
Si      -0.25516656      -1.20521566       3.26980994       0.00000000
Si       1.27532782       3.29909970      -0.14581762       0.00000000
