10
Lattice="16.290000149 0.0 0.0 0.0 16.290000149 0.0 0.0 0.0 29.1751946751" Properties=species:S:1:pos:R:3:initial_magmoms:R:1 pbc="T T T"
Si      -1.34615674       1.34504902      -1.36528241       0.00000000
Si      -1.35584929      -1.37099899       1.34564750       0.00000000
Si       1.35775522       1.34812783       1.36738302       0.00000000
Si       1.34379469      -1.30316743      -1.42380785       0.00000000
Si      -2.76820860      -0.11481192      -2.59027590       0.00000000
Si       0.11417661       2.78139714      -2.58050512       0.00000000
Si      -2.70029558       2.67434561       0.03573961       0.00000000
Si       2.69224832      -2.68815953      -0.06196811       0.00000000
Si       0.00690696      -2.71199180       2.70839167       0.00000000
Si      -2.71212212      -0.01852173       2.71069651       0.00000000
