10
Lattice="16.290000149 0.0 0.0 0.0 16.290000149 0.0 0.0 0.0 29.1751946751" Properties=species:S:1:pos:R:3:initial_magmoms:R:1 pbc="T T T"
Si       1.34586352      -1.36093177       1.35501274       0.00000000
Si      -1.31385188      -1.38373777      -1.36411540       0.00000000
Si      -1.37994220       1.34752510       1.34109617       0.00000000
Si       1.32452362       1.38388438      -1.36175221       0.00000000
Si      -2.63062325       0.05070751      -2.64073440       0.00000000
Si       2.68055210      -0.01104625      -2.65147087       0.00000000
Si      -0.00941725       2.71619462       2.66602929       0.00000000
Si       2.66012444      -2.73048095      -0.03784023       0.00000000
Si       2.70115895       0.00239789       2.70594096       0.00000000
Si      -0.02881049      -2.71011845       2.70547415       0.00000000
