10
Lattice="16.290000149 0.0 0.0 0.0 16.290000149 0.0 0.0 0.0 29.1751946751" Properties=species:S:1:pos:R:3:initial_magmoms:R:1 pbc="T T T"
Si       0.61245514      -1.30747125       0.43719029       0.00000000
Si      -1.51805534       1.47121507       0.62464092       0.00000000
H        2.01577349       0.35052822      -1.41447179       0.00000000
Si      -0.03841182       2.67530672      -0.76138506       0.00000000
Si       1.11589759       1.25600788      -2.22277056       0.00000000
Si      -2.83423685      -0.22516038      -0.51030333       0.00000000
Si      -1.58347435      -1.48282821      -2.11873181       0.00000000
Si      -0.22753872       1.62381979       2.64913685       0.00000000
Si      -0.23659596      -2.96870592      -0.95933875       0.00000000
Si       2.91907029      -1.22031649       0.07448427       0.00000000
