10
Lattice="16.290000149 0.0 0.0 0.0 16.290000149 0.0 0.0 0.0 29.1751946751" Properties=species:S:1:pos:R:3:initial_magmoms:R:1 pbc="T T T"
Si      -1.28091529      -0.03925890      -0.82061070       0.00000000
Si       2.30974283      -0.20030184      -0.91843513       0.00000000
Si       2.16585326       0.21628233       1.44032101       0.00000000
Si       1.44845794       1.87732478      -1.71051249       0.00000000
H        1.29487582       2.67310757      -0.43465205       0.00000000
Si       0.64361791      -1.15722206       2.72222071       0.00000000
Si      -2.64250518      -1.42384864       0.51456291       0.00000000
Si      -0.80277121      -2.59877630       1.44714801       0.00000000
Si      -0.68085685      -1.56119941      -2.57698660       0.00000000
Si      -2.07473514       2.22293342      -0.60415993       0.00000000
