10
Lattice="16.290000149 0.0 0.0 0.0 16.290000149 0.0 0.0 0.0 29.1751946751" Properties=species:S:1:pos:R:3:initial_magmoms:R:1 pbc="T T T"
Si      -1.36251190       1.38510613       1.32061519       0.00000000
Si      -1.35488818      -1.35058762      -1.36434880       0.00000000
Si       1.36295173       1.34529337      -1.36741220       0.00000000
Si       1.34364808      -1.33762078       1.40201398       0.00000000
Si      -2.68221368      -2.71467477       0.01024049       0.00000000
Si       0.01927107       2.73808838       2.65969827       0.00000000
Si       2.68084532      -2.73199267       0.05006463       0.00000000
Si      -0.05260041      -2.62192602       2.80046859       0.00000000
Si       0.00083079      -2.69969123      -2.73161513       0.00000000
Si       0.00895950       2.69690726      -2.73526203       0.00000000
