10
Lattice="16.290000149 0.0 0.0 0.0 16.290000149 0.0 0.0 0.0 29.1751946751" Properties=species:S:1:pos:R:3:initial_magmoms:R:1 pbc="T T T"
Si      -1.35591445      -1.31448898       1.39919274       0.00000000
Si       1.34309422       1.36943515       1.36371570       0.00000000
Si      -1.37352394       1.35180937      -1.36089154       0.00000000
Si       1.42669450      -1.37613034      -1.29352018       0.00000000
Si      -2.67603977      -2.65588904       0.00518151       0.00000000
Si      -2.54674604      -0.11709252      -2.80985425       0.00000000
Si       2.68483637      -0.00702099      -2.71879846       0.00000000
Si       2.71039538       2.71928972       0.01344685       0.00000000
Si      -0.00366525      -2.68188788       2.75534331       0.00000000
Si       2.80176600      -2.64025064       0.12400333       0.00000000
