10
Lattice="16.290000149 0.0 0.0 0.0 16.290000149 0.0 0.0 0.0 29.1751946751" Properties=species:S:1:pos:R:3:initial_magmoms:R:1 pbc="T T T"
Si       1.12989070      -0.05971914      -1.00575649       0.00000000
H        0.67056157       0.92587474       1.61633496       0.00000000
H       -0.91619848       1.76318075       0.44407564       0.00000000
Si      -2.27620172       1.19260720       0.17014974       0.00000000
Si      -2.73632906      -1.01392219       0.78198274       0.00000000
Si       0.13541877       0.67176703       3.00265269       0.00000000
Si       1.35197227      -2.19331820      -1.91797730       0.00000000
Si       3.19042911       0.63715078      -0.10450555       0.00000000
Si       0.90660367       1.45420831      -2.84239334       0.00000000
Si      -1.66250855      -0.92460412       2.88353037       0.00000000
