10
Lattice="16.290000149 0.0 0.0 0.0 16.290000149 0.0 0.0 0.0 29.1751946751" Properties=species:S:1:pos:R:3:initial_magmoms:R:1 pbc="T T T"
Si      -1.52251228       1.31745539       1.19431577       0.00000000
Si       1.39624849       1.28430524      -1.39845461       0.00000000
Si      -1.22979727      -1.43296452      -1.42789238       0.00000000
Si       0.98797222      -0.85596132       1.99071106       0.00000000
Si      -0.08283465       2.64745245       2.40383181       0.00000000
Si      -0.76305619      -1.18223210       3.47922949       0.00000000
Si       1.09815778      -3.16196885       1.75293322       0.00000000
Si      -2.68136660      -0.12392129       2.69850128       0.00000000
Si      -2.57364083      -2.81210852      -0.11617563       0.00000000
Si      -2.62961327      -0.09274874      -2.79022809       0.00000000
