10
Lattice="16.290000149 0.0 0.0 0.0 16.290000149 0.0 0.0 0.0 29.1751946751" Properties=species:S:1:pos:R:3:initial_magmoms:R:1 pbc="T T T"
Si      -0.91981486       0.89228476      -0.80193858       0.00000000
Si       0.89013448      -1.57591090       1.50033439       0.00000000
H       -2.03717855      -0.33739848       1.39991337       0.00000000
Si       1.91265779       0.57759454       1.89285746       0.00000000
Si       1.86251717      -1.97806703      -0.65454549       0.00000000
Si      -1.42267087      -1.64522486       1.84719828       0.00000000
Si      -2.21195396      -0.57407590      -2.10370659       0.00000000
Si       0.41902767       2.20276640      -2.19660041       0.00000000
Si      -2.03885642       2.34900173       0.65186137       0.00000000
Si       3.03138984       2.01886859       0.34012442       0.00000000
