10
Lattice="16.290000149 0.0 0.0 0.0 16.290000149 0.0 0.0 0.0 29.1751946751" Properties=species:S:1:pos:R:3:initial_magmoms:R:1 pbc="T T T"
Si       1.35571897       1.34035750      -1.31496103       0.00000000
Si       1.43365033      -1.31942485       1.28224981       0.00000000
Si      -1.33587775       1.44107857       1.28919350       0.00000000
Si      -1.30434031      -1.29518533      -1.47563467       0.00000000
Si      -0.05045013       2.70444953      -2.56915889       0.00000000
Si       0.05282847      -2.63643878       2.64540243       0.00000000
Si      -2.67164147      -2.64503990      -0.12536581       0.00000000
Si      -2.69970914       0.08001648       2.61911558       0.00000000
Si       2.78001885      -2.59913468      -0.17773529       0.00000000
Si       2.76874617       0.08531073       2.62028258       0.00000000
