10
Lattice="16.290000149 0.0 0.0 0.0 16.290000149 0.0 0.0 0.0 29.1751946751" Properties=species:S:1:pos:R:3:initial_magmoms:R:1 pbc="T T T"
Si      -1.36980494       1.34294761      -1.35664655       0.00000000
Si      -1.33159511      -1.39690009       1.34159215       0.00000000
Si       1.29845962      -1.35708733      -1.41826456       0.00000000
Si       1.35610993       1.38189700       1.34970286       0.00000000
Si       2.77625586       0.01194057       2.60502396       0.00000000
Si      -2.73642681      -0.07956036       2.65532199       0.00000000
Si       2.60872949      -2.78296734      -0.12037685       0.00000000
Si      -0.00965997       2.69343749      -2.70958786       0.00000000
Si      -2.70979065       2.70415631       0.01420832       0.00000000
Si       0.03894939      -2.63454914       2.78637697       0.00000000
