10
Lattice="16.290000149 0.0 0.0 0.0 16.290000149 0.0 0.0 0.0 29.1751946751" Properties=species:S:1:pos:R:3:initial_magmoms:R:1 pbc="T T T"
Si       1.41907078      -1.33099075      -1.30162214       0.00000000
Si       1.37280718       1.32729292       1.36341520       0.00000000
Si      -1.35179308      -1.37526697       1.34640606       0.00000000
Si      -1.35166276       1.31869180      -1.40735304       0.00000000
Si       0.10700901      -2.69099399      -2.64706541       0.00000000
Si       0.00403992       2.70573644       2.68706460       0.00000000
Si       2.75362905       2.64430685       0.00026258       0.00000000
Si      -2.72113049      -0.01194057       2.68335936       0.00000000
Si      -2.71404434       2.69234606      -0.05738761       0.00000000
Si       0.01563840       2.66854637      -2.75762190       0.00000000
