10
Lattice="16.290000149 0.0 0.0 0.0 16.290000149 0.0 0.0 0.0 29.1751946751" Properties=species:S:1:pos:R:3:initial_magmoms:R:1 pbc="T T T"
H       -0.17920629       1.38829246       0.60946982       0.00000000
Si       0.83165338      -1.24330820       1.71589239       0.00000000
Si       1.89679133       0.01323237      -1.33987082       0.00000000
Si      -1.90280234      -0.54831326      -1.28367939       0.00000000
Si       0.63254071       1.11976809      -2.93219459       0.00000000
Si      -2.63370206       1.64179744      -0.88249129       0.00000000
Si      -0.69610429       2.67129287      -1.78149574       0.00000000
Si       1.87172102       0.61054758       2.66711169       0.00000000
Si       2.32384997      -2.27674581      -1.02582902       0.00000000
Si      -1.00090648      -2.26560345       2.65731466       0.00000000
