10
Lattice="16.290000149 0.0 0.0 0.0 16.290000149 0.0 0.0 0.0 29.1751946751" Properties=species:S:1:pos:R:3:initial_magmoms:R:1 pbc="T T T"
Si       0.65412496      -0.42433821       2.13114878       0.00000000
Si      -1.07364133      -1.75938518      -1.06226884       0.00000000
Si      -1.70122988       1.59739741      -0.01639646       0.00000000
Si       1.78794155       0.58917673      -1.44055441       0.00000000
Si      -0.30737601       3.03228579      -1.19265278       0.00000000
H        3.08335494       1.14223852      -0.51998949       0.00000000
H       -0.55674334      -3.04238559       1.32869672       0.00000000
Si      -2.00129168      -0.71863336      -2.89826384       0.00000000
Si      -1.25382502      -1.21463128       3.25259950       0.00000000
Si       0.76268152       1.92282275      -3.06076967       0.00000000
