10
Lattice="16.290000149 0.0 0.0 0.0 16.290000149 0.0 0.0 0.0 29.1751946751" Properties=species:S:1:pos:R:3:initial_magmoms:R:1 pbc="T T T"
H        1.29541339       0.55306180       0.92056492       0.00000000
Si       1.23279463      -1.85082095      -0.66373568       0.00000000
Si      -1.02526003       1.33364602      -1.62021526       0.00000000
Si      -1.78794155      -0.58917673       1.44055441       0.00000000
H        0.96040954       1.25740882      -2.68038349       0.00000000
Si      -2.09531756       2.44310906       0.24790163       0.00000000
Si      -1.79869295      -0.70652989      -2.62956030       0.00000000
Si       2.47886561       1.08600544       1.97154296       0.00000000
Si      -0.31688937      -2.57074121      -2.25369626       0.00000000
Si      -2.86158288      -2.34856190       0.37828557       0.00000000
