10
Lattice="16.290000149 0.0 0.0 0.0 16.290000149 0.0 0.0 0.0 29.1751946751" Properties=species:S:1:pos:R:3:initial_magmoms:R:1 pbc="T T T"
H       -0.59818510      -0.09244575      -1.40102202       0.00000000
Si      -1.71517412       0.44344638       1.52484155       0.00000000
Si       0.47824182      -2.02963628       1.05812596       0.00000000
H        1.51506775      -0.84887191      -1.70671971       0.00000000
Si       1.89762212       1.49853340       0.32005189       0.00000000
Si       0.79793308      -0.93206494      -3.03223633       0.00000000
Si      -2.56003868       2.28827261       0.39917501       0.00000000
Si      -0.33635592       1.47105217       3.15696029       0.00000000
Si       2.07249527      -1.21634173       2.61926145       0.00000000
Si       0.92686843       2.95497345       1.83042254       0.00000000
