10
Lattice="16.290000149 0.0 0.0 0.0 16.290000149 0.0 0.0 0.0 29.1751946751" Properties=species:S:1:pos:R:3:initial_magmoms:R:1 pbc="T T T"
H       -0.91096939      -0.07117101       1.21453418       0.00000000
Si      -0.88736518       1.42475599      -1.59007728       0.00000000
Si       0.34376787      -2.11936160      -0.93287685       0.00000000
Si       1.88691959       1.34039008       0.38552102       0.00000000
H        0.99225649       0.35186400       2.45649304       0.00000000
H       -2.17609967      -1.83063764       0.78796366       0.00000000
Si       0.27264573       2.87131289       1.46395292       0.00000000
Si      -0.32252571       0.38905407      -3.59943129       0.00000000
Si      -1.71677054      -2.81623152      -1.83412779       0.00000000
Si       1.56636496      -3.44235396       0.58300792       0.00000000
