10
Lattice="16.290000149 0.0 0.0 0.0 16.290000149 0.0 0.0 0.0 29.1751946751" Properties=species:S:1:pos:R:3:initial_magmoms:R:1 pbc="T T T"
Si       1.41639922      -1.34297091       1.25514313       0.00000000
Si      -1.49837050       1.23536356       1.27955985       0.00000000
Si      -1.04006764      -1.85385577      -0.95121929       0.00000000
Si       0.86512933       1.72730528      -1.38362952       0.00000000
H       -2.05092731       0.77774488      -2.05764187       0.00000000
Si      -1.87172102      -0.61054758      -2.66711169       0.00000000
Si      -0.07851780       2.66437125       2.51516144       0.00000000
Si       2.64789065      -2.54578982      -0.33925792       0.00000000
Si      -0.84005902       3.39579225      -1.25518981       0.00000000
Si      -0.04419477      -2.78015405       2.46888958       0.00000000
