10
Lattice="16.290000149 0.0 0.0 0.0 16.290000149 0.0 0.0 0.0 29.1751946751" Properties=species:S:1:pos:R:3:initial_magmoms:R:1 pbc="T T T"
Si       1.42965928      -1.22556187      -1.28933938       0.00000000
Si      -1.22430754       1.53295417      -1.24169629       0.00000000
Si       1.48638106       1.01374300       1.46970043       0.00000000
Si      -1.11873205      -1.44127405       1.55273304       0.00000000
H        2.07578585      -2.07282107      -0.21557551       0.00000000
Si      -1.99933688       0.33754509       2.83574140       0.00000000
Si      -0.12535155       1.79957261       2.99191621       0.00000000
Si       2.47016675      -0.84589084       2.36231551       0.00000000
Si      -0.01001835      -2.55555893      -2.49885542       0.00000000
Si       0.70063291      -2.32761296       2.69996004       0.00000000
