10
Lattice="16.290000149 0.0 0.0 0.0 16.290000149 0.0 0.0 0.0 29.1751946751" Properties=species:S:1:pos:R:3:initial_magmoms:R:1 pbc="T T T"
H       -0.64705510      -0.82758088       1.07586448       0.00000000
Si       1.23655762      -1.36642150      -1.41893559       0.00000000
Si      -1.57812634       1.08703171      -1.32245322       0.00000000
Si       1.28650276       1.45461556       1.29572875       0.00000000
H       -2.08383311      -1.73918558       0.52611629       0.00000000
Si      -3.17928675       1.01351494       0.46934136       0.00000000
H       -1.27845550      -2.48872106       2.18020395       0.00000000
Si       2.50838309      -0.03795570       2.65823951       0.00000000
Si      -0.28189845       2.67520898      -2.60207726       0.00000000
Si       2.55909386      -2.74281249      -0.08662115       0.00000000
