10
Lattice="16.290000149 0.0 0.0 0.0 16.290000149 0.0 0.0 0.0 29.1751946751" Properties=species:S:1:pos:R:3:initial_magmoms:R:1 pbc="T T T"
Si      -1.32722776       1.35910729       1.36601179       0.00000000
Si       1.37723806      -1.33973848       1.35903892       0.00000000
Si       1.41134932       1.40398624      -1.25753550       0.00000000
Si      -1.41985270      -1.42900768      -1.23560159       0.00000000
Si       0.07851780      -2.66437125      -2.51516144       0.00000000
Si       2.66888846       0.00345348      -2.62302214       0.00000000
Si      -2.66949119      -0.05887206      -2.64890053       0.00000000
Si       0.05087367       2.72331335       2.67101825       0.00000000
Si      -2.64456749       2.75030589       0.02456551       0.00000000
Si       0.09622503       2.66758526      -2.72976542       0.00000000
