10
Lattice="16.290000149 0.0 0.0 0.0 16.290000149 0.0 0.0 0.0 29.1751946751" Properties=species:S:1:pos:R:3:initial_magmoms:R:1 pbc="T T T"
Si      -1.36014497      -1.35048988       1.35294130       0.00000000
Si      -1.38897827       1.34842105      -1.33094321       0.00000000
Si       1.31825197      -1.36296802      -1.39075236       0.00000000
Si       1.36834372       1.36163224       1.35264955       0.00000000
Si      -0.01322748       2.69656517      -2.68128792       0.00000000
Si       0.00965997      -2.69343749       2.70958786       0.00000000
Si       2.68521104      -2.72059292      -0.06319347       0.00000000
Si       2.68698665      -0.01949913      -2.73362822       0.00000000
Si      -2.70013068       0.01071882       2.72379617       0.00000000
Si      -2.70289382      -0.01669725      -2.72639277       0.00000000
