10
Lattice="16.290000149 0.0 0.0 0.0 16.290000149 0.0 0.0 0.0 29.1751946751" Properties=species:S:1:pos:R:3:initial_magmoms:R:1 pbc="T T T"
Si       1.91831042      -1.05831081       0.78072821       0.00000000
Si      -1.25566579      -1.31922449      -1.46984631       0.00000000
Si       1.15885432       1.44137668      -1.50418551       0.00000000
Si      -0.97238269       0.40215612       2.15487988       0.00000000
H       -1.86251717       1.97806703       0.65454549       0.00000000
Si       0.05014062       2.55566156       2.54740295       0.00000000
Si      -2.59801067      -2.61729315      -0.10004174       0.00000000
Si       2.68136660       0.12392129      -2.69850128       0.00000000
Si       3.66933882      -0.73204003      -0.70779022       0.00000000
Si       2.59853195       2.77137374      -0.29466947       0.00000000
