10
Lattice="16.290000149 0.0 0.0 0.0 16.290000149 0.0 0.0 0.0 29.1751946751" Properties=species:S:1:pos:R:3:initial_magmoms:R:1 pbc="T T T"
Si       1.35890367      -1.33947784       1.38039516       0.00000000
Si      -1.50569286      -1.38508984      -1.16801929       0.00000000
Si      -1.40019882       1.34926813       1.36932609       0.00000000
Si       1.48819740       1.19931868      -1.43464060       0.00000000
Si      -2.64552046       0.11679930      -2.55041675       0.00000000
Si      -0.24225837      -2.81285949      -2.49440037       0.00000000
Si       2.66141950       2.66822057       0.01432210       0.00000000
Si       0.13267391       2.60817563      -2.74746601       0.00000000
Si      -0.01579641      -2.70001865       2.74190522       0.00000000
Si       2.67902899       0.00192222       2.77440639       0.00000000
