10
Lattice="16.290000149 0.0 0.0 0.0 16.290000149 0.0 0.0 0.0 29.1751946751" Properties=species:S:1:pos:R:3:initial_magmoms:R:1 pbc="T T T"
H        1.31228983      -0.46237536       0.60383900       0.00000000
Si      -1.25797897       0.24386130       1.93889591       0.00000000
Si       0.27148914       2.03248703      -1.19408237       0.00000000
Si      -0.97502167      -1.99488971      -0.87715223       0.00000000
H        1.88388965      -0.58502278      -1.72577112       0.00000000
Si       3.06999714      -1.09788085      -0.92800459       0.00000000
H       -0.88739776      -2.81934291       1.69907581       0.00000000
Si      -1.92427256       2.75227698      -0.72765853       0.00000000
Si      -3.31851738      -0.45300861       1.03764497       0.00000000
H        1.07851204       0.16451271      -3.37985878       0.00000000
