10
Lattice="16.290000149 0.0 0.0 0.0 16.290000149 0.0 0.0 0.0 29.1751946751" Properties=species:S:1:pos:R:3:initial_magmoms:R:1 pbc="T T T"
Si       0.59818510       0.09244575       1.40102202       0.00000000
H        2.11325285      -0.75642616      -0.30569769       0.00000000
Si       1.39611817      -0.83961919      -1.63121431       0.00000000
Si      -0.47786715      -2.30164670      -1.78738913       0.00000000
Si      -1.11698902       0.53589213       2.92586357       0.00000000
H       -3.11639106      -0.63786754       0.74303386       0.00000000
Si       1.07642692      -1.93719053       2.45914798       0.00000000
Si       1.05262723       1.11200428      -3.00131063       0.00000000
H       -1.71103646      -2.67229307       1.19732081       0.00000000
Si       2.49580721       1.59097915       1.72107391       0.00000000
