10
Lattice="16.290000149 0.0 0.0 0.0 16.290000149 0.0 0.0 0.0 29.1751946751" Properties=species:S:1:pos:R:3:initial_magmoms:R:1 pbc="T T T"
Si      -1.35397594      -1.35399223       1.33610722       0.00000000
Si      -1.37451763       1.34703803      -1.33613639       0.00000000
Si       1.30549690       1.31473659       1.44554337       0.00000000
Si       1.35277048      -1.38468259      -1.33686577       0.00000000
Si       0.04136031      -2.80262937       2.53153164       0.00000000
Si       2.67292838       2.67431303       0.06967036       0.00000000
Si      -0.01008351       2.69490359      -2.68569337       0.00000000
Si       2.71293662      -0.02083491      -2.67834122       0.00000000
Si      -2.72471429      -0.02306664      -2.68633522       0.00000000
Si      -2.73023660       2.69614163       0.03112993       0.00000000
