10
Lattice="16.290000149 0.0 0.0 0.0 16.290000149 0.0 0.0 0.0 29.1751946751" Properties=species:S:1:pos:R:3:initial_magmoms:R:1 pbc="T T T"
Si       1.36014497       1.35048988      -1.35294130       0.00000000
Si       1.36980494      -1.34294761       1.35664655       0.00000000
Si      -1.33998572       1.36120870       1.37085487       0.00000000
Si      -1.34722048      -1.37440360      -1.35492522       0.00000000
Si       2.66826456      -2.70003494      -0.06161801       0.00000000
Si      -2.68915811      -0.04611699       2.67965411       0.00000000
Si      -0.02883330       2.69891093      -2.68388451       0.00000000
Si      -2.69134097      -0.01842399      -2.72233742       0.00000000
Si       2.67839694      -0.01247814      -2.74369366       0.00000000
Si       2.72591487       0.03894939       2.70634941       0.00000000
