10
Lattice="16.290000149 0.0 0.0 0.0 16.290000149 0.0 0.0 0.0 29.1751946751" Properties=species:S:1:pos:R:3:initial_magmoms:R:1 pbc="T T T"
Si      -2.27917953       0.38288016      -0.01890553       0.00000000
Si       0.26789231      -0.80796772      -2.15543421       0.00000000
Si       1.03977768      -1.53310078       1.48274174       0.00000000
Si       1.25156397       2.01685189       0.09907896       0.00000000
Si      -2.55609325       1.23172764       2.12824293       0.00000000
Si       3.32699144       1.29303179       0.94682259       0.00000000
Si       2.57084221      -0.20937537       2.66807155       0.00000000
Si       1.92627949      -2.46016469      -2.05772648       0.00000000
Si       1.20715743       0.91953793      -3.42318394       0.00000000
Si       2.39684872      -2.88365583       0.15375328       0.00000000
