10
Lattice="16.290000149 0.0 0.0 0.0 16.290000149 0.0 0.0 0.0 29.1751946751" Properties=species:S:1:pos:R:3:initial_magmoms:R:1 pbc="T T T"
Si       0.92765035      -1.04075182       1.83599500       0.00000000
Si      -0.77146183      -2.04535613      -0.88152851       0.00000000
Si      -1.29419164       1.50273622       1.32073189       0.00000000
Si       1.99054028       0.60128020      -1.17185087       0.00000000
H       -0.25736571       2.68350059      -1.44411379       0.00000000
Si      -0.14851593      -1.52687800      -3.06158658       0.00000000
Si       2.25629534      -2.59227659       0.68529615       0.00000000
Si      -1.00994743      -2.07024725       2.73499945       0.00000000
Si       2.00129168       0.71863336       2.89826384       0.00000000
Si       0.30006180       2.31603077       2.88186738       0.00000000
