10
Lattice="16.290000149 0.0 0.0 0.0 16.290000149 0.0 0.0 0.0 29.1751946751" Properties=species:S:1:pos:R:3:initial_magmoms:R:1 pbc="T T T"
Si      -1.41754930       1.22129389      -1.37811950       0.00000000
Si      -1.31341873      -1.48722814       1.27008375       0.00000000
Si       1.50399055      -1.33301071      -1.24954441       0.00000000
Si       0.66495781       1.87781348       1.29692493       0.00000000
Si       0.04398300       2.60703533      -2.59554202       0.00000000
Si       0.24803154      -2.56604969       2.63565791       0.00000000
Si      -2.75913507       2.52074720       0.04711794       0.00000000
Si       0.06695190      -2.73909837      -2.56668775       0.00000000
Si      -2.70842429      -0.18410958      -2.69774273       0.00000000
Si      -0.99342937       3.53001045       1.19921720       0.00000000
