10
Lattice="16.290000149 0.0 0.0 0.0 16.290000149 0.0 0.0 0.0 29.1751946751" Properties=species:S:1:pos:R:3:initial_magmoms:R:1 pbc="T T T"
H       -1.12989070       0.05971914       1.00575649       0.00000000
Si       0.22208157      -2.13359906      -0.91222081       0.00000000
Si       2.06053841       0.69686992       0.90125094       0.00000000
Si      -0.22328703       1.51392745      -1.83663686       0.00000000
H       -0.45932913       0.98559388       2.62209145       0.00000000
H       -2.04608918       1.82289989       1.44983212       0.00000000
Si       2.34349571      -1.54188109      -1.91479720       0.00000000
H        2.43111962      -2.36633429       0.66143084       0.00000000
Si       3.31851738       0.45300861      -1.03764497       0.00000000
Si       1.71677054       2.81623152       1.83412779       0.00000000
