10
Lattice="16.290000149 0.0 0.0 0.0 16.290000149 0.0 0.0 0.0 29.1751946751" Properties=species:S:1:pos:R:3:initial_magmoms:R:1 pbc="T T T"
Si      -1.41284800      -1.29477808      -1.34482622       0.00000000
Si      -1.38137572       1.35645202       1.32453925       0.00000000
Si       1.32095611       1.40326948      -1.34234575       0.00000000
Si       1.37160172      -1.41198463       1.30370816       0.00000000
Si       2.62549190       2.58765023       0.21018394       0.00000000
Si       2.66102039       0.04641021      -2.68496691       0.00000000
Si      -0.10614564      -2.72127710      -2.64505524       0.00000000
Si      -2.73465120      -0.04109967       2.64475766       0.00000000
Si      -2.69021207       0.20127924      -2.68461681       0.00000000
Si      -0.04435767       2.68118741       2.72910314       0.00000000
