10
Lattice="16.290000149 0.0 0.0 0.0 16.290000149 0.0 0.0 0.0 29.1751946751" Properties=species:S:1:pos:R:3:initial_magmoms:R:1 pbc="T T T"
Si       1.36730116       1.34985457      -1.35026885       0.00000000
Si      -1.34309422      -1.36943515      -1.36371570       0.00000000
Si       1.35166276      -1.31869180       1.40735304       0.00000000
Si      -1.36238158       1.37365426       1.34996543       0.00000000
Si       2.67164147       2.64503990       0.12536581       0.00000000
Si      -2.69900867      -2.68392413       0.03547704       0.00000000
Si       0.08360028      -2.74556550      -2.65723589       0.00000000
Si      -0.00430056       2.76183921      -2.65397702       0.00000000
Si       2.77073355      -2.64968255       0.10573091       0.00000000
Si      -2.71661816      -0.01762578      -2.72460725       0.00000000
