10
Lattice="16.290000149 0.0 0.0 0.0 16.290000149 0.0 0.0 0.0 29.1751946751" Properties=species:S:1:pos:R:3:initial_magmoms:R:1 pbc="T T T"
Si       1.42014592      -1.36995643       1.25532110       0.00000000
Si       1.37678194       1.32023935      -1.36283169       0.00000000
Si      -1.34012944       1.32968755       1.40781984       0.00000000
Si      -1.35610993      -1.38189700      -1.34970286       0.00000000
Si      -2.68745744       2.68087790       0.01858460       0.00000000
Si       0.11987811      -2.61035849       2.75381745       0.00000000
Si       0.00257382       2.67317273      -2.70664116       0.00000000
Si       0.08154774       2.71562447       2.70710796       0.00000000
Si      -2.80166174      -0.05605389       2.62524237       0.00000000
Si       2.60226236      -2.82113481      -0.15757523       0.00000000
