10
Lattice="16.290000149 0.0 0.0 0.0 16.290000149 0.0 0.0 0.0 29.1751946751" Properties=species:S:1:pos:R:3:initial_magmoms:R:1 pbc="T T T"
Si      -1.35542575      -1.34369695       1.37558125       0.00000000
Si       1.33431391       1.35140212       1.39451596       0.00000000
Si      -1.37657017       1.34708527      -1.35918479       0.00000000
Si       1.36238158      -1.37365426      -1.34996543       0.00000000
Si       2.71404434      -2.69234606       0.05738761       0.00000000
Si       2.69814530       2.71246421       0.06459388       0.00000000
Si      -2.71515206      -2.69855255       0.02208562       0.00000000
Si      -0.02329470       2.74463697      -2.67940320       0.00000000
Si       2.72968274      -0.02379969      -2.70023429       0.00000000
Si      -2.72828180       2.71639010      -0.00064185       0.00000000
