10
Lattice="16.290000149 0.0 0.0 0.0 16.290000149 0.0 0.0 0.0 29.1751946751" Properties=species:S:1:pos:R:3:initial_magmoms:R:1 pbc="T T T"
Si      -0.26789231       0.80796772       2.15543421       0.00000000
Si      -1.76570570      -1.00926325      -1.15209926       0.00000000
Si       0.93926512       1.72750565      -1.26774973       0.00000000
Si       1.65838718      -1.65219698       0.09770773       0.00000000
Si      -0.42411993      -2.30871656      -2.57733670       0.00000000
Si      -2.54707184       1.19084788       2.13652868       0.00000000
Si       2.45908955       0.46296180      -2.49547110       0.00000000
Si       3.48827547      -0.35934111      -0.53959523       0.00000000
Si       0.98367166       2.82481960       2.25451317       0.00000000
Si       2.12895641      -2.07568811       2.30918748       0.00000000
