10
Lattice="16.290000149 0.0 0.0 0.0 16.290000149 0.0 0.0 0.0 29.1751946751" Properties=species:S:1:pos:R:3:initial_magmoms:R:1 pbc="T T T"
Si       1.29733561       1.28367091       1.50610816       0.00000000
Si      -1.33537276      -1.36480293       1.40841502       0.00000000
Si       1.48095649      -1.29905649      -1.33987082       0.00000000
Si      -1.35565381       1.38668072      -1.39927151       0.00000000
Si      -0.00584811      -2.54690308      -2.71921567       0.00000000
Si      -2.60801273       2.72877637       0.08677666       0.00000000
Si       2.69539229      -2.71371268       0.11078609       0.00000000
Si       2.28537299       3.07085008       0.35315406       0.00000000
Si       2.36713250       2.37806896      -1.87649017       0.00000000
Si       3.09803223       0.18795826      -2.27767827       0.00000000
