10
Lattice="16.290000149 0.0 0.0 0.0 16.290000149 0.0 0.0 0.0 29.1751946751" Properties=species:S:1:pos:R:3:initial_magmoms:R:1 pbc="T T T"
H       -1.05845905       1.10354000      -0.02666613       0.00000000
Si       0.27691371      -0.84884747      -2.14714845       0.00000000
Si      -0.83603539      -1.93133427       0.99478661       0.00000000
Si       1.87777764       0.90397283       1.09526598       0.00000000
Si       2.55609325      -1.23172764      -2.12824293       0.00000000
Si       0.94589515       1.72244760       3.08626879       0.00000000
Si      -2.40034781      -2.70893743      -0.60430581       0.00000000
Si      -0.38454174       0.82312719      -3.60141521       0.00000000
H        0.18981108       3.27250627      -1.75926424       0.00000000
Si      -2.87034690       0.53794793       2.35472996       0.00000000
