10
Lattice="16.290000149 0.0 0.0 0.0 16.290000149 0.0 0.0 0.0 29.1751946751" Properties=species:S:1:pos:R:3:initial_magmoms:R:1 pbc="T T T"
Si       1.30017007      -1.34936587       1.41864384       0.00000000
Si      -1.37805256       1.34897491       1.35016966       0.00000000
Si      -1.42850269      -1.40395366      -1.24238482       0.00000000
Si       1.42737868       1.39061215      -1.28117032       0.00000000
Si      -2.63122598      -0.00689067      -2.68397787       0.00000000
Si       2.71451675      -0.05856255      -2.60919309       0.00000000
Si       0.05230719       2.65473245      -2.69869384       0.00000000
Si      -0.11269422      -2.72720992      -2.64245865       0.00000000
Si       2.63076986      -2.76888789       0.13289301       0.00000000
Si      -0.03142341       2.70633917       2.71230115       0.00000000
