10
Lattice="16.290000149 0.0 0.0 0.0 16.290000149 0.0 0.0 0.0 29.1751946751" Properties=species:S:1:pos:R:3:initial_magmoms:R:1 pbc="T T T"
Si       0.84486457      -1.84482623       1.12566654       0.00000000
Si      -1.72043579       0.75750130       1.37995753       0.00000000
Si      -1.07382052      -0.08931807      -2.10154762       0.00000000
Si       1.79792732       1.59637114       0.11912232       0.00000000
H        2.33307011       1.85047886      -1.26719541       0.00000000
H       -1.15453747      -3.01858590      -1.05716318       0.00000000
H        1.66250855       0.92460412      -2.88353037       0.00000000
Si       2.56003868      -2.28827261      -0.39917501       0.00000000
Si      -0.36038367       2.10533591       2.71822371       0.00000000
Si      -0.61369318       2.11721132      -2.71338063       0.00000000
