10
Lattice="16.290000149 0.0 0.0 0.0 16.290000149 0.0 0.0 0.0 29.1751946751" Properties=species:S:1:pos:R:3:initial_magmoms:R:1 pbc="T T T"
Si      -1.31206177      -1.36000324      -1.34544328       0.00000000
Si       1.31733973      -1.39119859       1.34144628       0.00000000
Si      -1.41907078       1.33099075       1.30162214       0.00000000
Si       1.30914586       1.28920690      -1.47021683       0.00000000
Si      -0.04626360       2.65828367       2.66503733       0.00000000
Si       2.69544116      -0.02699253       2.64645273       0.00000000
Si       2.68092677       2.69558777      -0.15810038       0.00000000
Si       2.64456749      -2.75030589      -0.02456551       0.00000000
Si      -2.77086387      -0.04427622       2.64802819       0.00000000
Si      -2.77073355       2.64968255      -0.10573091       0.00000000
