10
Lattice="16.290000149 0.0 0.0 0.0 16.290000149 0.0 0.0 0.0 29.1751946751" Properties=species:S:1:pos:R:3:initial_magmoms:R:1 pbc="T T T"
Si       1.33059979      -1.41952202      -1.28575083       0.00000000
Si      -1.34860024      -1.37381065       1.33709917       0.00000000
Si       1.38569257       1.35040843       1.32443714       0.00000000
Si      -1.30017007       1.34936587      -1.41864384       0.00000000
Si       2.66398517      -0.07933230      -2.61453799       0.00000000
Si       0.01438407       2.69666291       2.66194476       0.00000000
Si      -2.67822263       2.69834078      -0.06847418       0.00000000
Si      -2.71085150      -0.01674612       2.67437340       0.00000000
Si      -2.72867277      -0.05458779      -2.66102866       0.00000000
Si       0.03345966      -2.73334800       2.65949405       0.00000000
