10
Lattice="16.290000149 0.0 0.0 0.0 16.290000149 0.0 0.0 0.0 29.1751946751" Properties=species:S:1:pos:R:3:initial_magmoms:R:1 pbc="T T T"
Si       1.37810143       1.36420606       1.30500646       0.00000000
Si      -1.31733973       1.39119859      -1.34144628       0.00000000
Si       1.32722776      -1.35910729      -1.36601179       0.00000000
Si      -1.37091754      -1.35837424       1.33736175       0.00000000
Si      -2.62940150       0.03119535      -2.68688955       0.00000000
Si      -0.00780291       2.67952583       2.66197394       0.00000000
Si       2.73857709       0.04487895      -2.62354729       0.00000000
Si       2.70739802      -0.00236205       2.68090864       0.00000000
Si      -0.09262494      -2.78811498      -2.60161338       0.00000000
Si      -0.00851967      -2.72416043       2.67306051       0.00000000
