10
Lattice="16.290000149 0.0 0.0 0.0 16.290000149 0.0 0.0 0.0 29.1751946751" Properties=species:S:1:pos:R:3:initial_magmoms:R:1 pbc="T T T"
Si      -1.36225126       1.35706453       1.33727422       0.00000000
Si       1.34860024       1.37381065      -1.33709917       0.00000000
Si       1.38205990      -1.35953735       1.32239487       0.00000000
Si      -1.35553978      -1.37188517      -1.33765350       0.00000000
Si       2.67920003      -0.04571137      -2.62285000       0.00000000
Si       0.00514764      -2.71418118       2.65564292       0.00000000
Si      -2.72577314      -0.01088987      -2.65091654       0.00000000
Si       0.00990432       2.70605573       2.67819535       0.00000000
Si       2.73225656       0.01056732       2.67259371       0.00000000
Si      -2.70446582       0.00236368       2.70544498       0.00000000
