10
Lattice="16.290000149 0.0 0.0 0.0 16.290000149 0.0 0.0 0.0 29.1751946751" Properties=species:S:1:pos:R:3:initial_magmoms:R:1 pbc="T T T"
Si       2.30322683       0.05991462      -0.44886037       0.00000000
Si      -0.85916719       2.08072172      -0.78860551       0.00000000
Si      -0.13844871       0.41664933       2.36015655       0.00000000
Si      -0.94133395      -2.07018535      -0.82586224       0.00000000
H       -2.30291732       0.19635966       0.92155687       0.00000000
H       -1.00696636       2.87290443       0.49157286       0.00000000
Si      -3.59293872       0.15925104       0.11069069       0.00000000
Si      -3.01676142      -1.34636525      -1.67360587       0.00000000
Si       3.07468866       2.10527075       0.43266814       0.00000000
Si       2.06474123       0.03502350       3.16766759       0.00000000
