10
Lattice="16.290000149 0.0 0.0 0.0 16.290000149 0.0 0.0 0.0 29.1751946751" Properties=species:S:1:pos:R:3:initial_magmoms:R:1 pbc="T T T"
Si       1.30536658      -1.38049606       1.37368487       0.00000000
Si      -1.37323072      -1.38491065      -1.30853666       0.00000000
Si      -1.32572908       1.37433844       1.36764560       0.00000000
Si       1.35451351       1.34775316      -1.37263456       0.00000000
Si      -2.68524362       2.69930189      -0.02062686       0.00000000
Si       2.68820352      -0.02339244       2.70772064       0.00000000
Si      -2.69697242      -0.02008557      -2.70074777       0.00000000
Si      -0.00166158      -2.72507105      -2.67320639       0.00000000
Si       2.69767452       2.70739802      -0.01840955       0.00000000
Si      -2.68493411       0.02919168       2.72563421       0.00000000
