10
Lattice="16.290000149 0.0 0.0 0.0 16.290000149 0.0 0.0 0.0 29.1751946751" Properties=species:S:1:pos:R:3:initial_magmoms:R:1 pbc="T T T"
Si      -1.36873468      -1.34346889       1.34287586       0.00000000
Si      -1.38210877       1.34560288      -1.33634062       0.00000000
Si       1.34995231      -1.36500427      -1.35582965       0.00000000
Si       1.36603054       1.36228384       1.35253285       0.00000000
Si       0.00534312       2.70457985      -2.64076357       0.00000000
Si      -0.00177561      -2.70109379       2.67043474       0.00000000
Si       2.71378370      -0.00394218      -2.68575172       0.00000000
Si      -2.70829397      -2.70645320      -0.02281500       0.00000000
Si      -2.70021413       2.71606430       0.05234030       0.00000000
Si      -2.68698665       0.01949913       2.73362822       0.00000000
