10
Lattice="16.290000149 0.0 0.0 0.0 16.290000149 0.0 0.0 0.0 29.1751946751" Properties=species:S:1:pos:R:3:initial_magmoms:R:1 pbc="T T T"
Si       1.34572017      -1.36109141       1.35547954       0.00000000
Si      -1.31379698      -1.38362048      -1.36417375       0.00000000
Si      -1.37998781       1.34834286       1.34074607       0.00000000
Si       1.32367980       1.38341523      -1.36277334       0.00000000
Si      -2.63042452       0.05187388      -2.63974244       0.00000000
Si       2.68104406      -0.01158056      -2.65088736       0.00000000
Si      -0.01001509       2.71779430       2.66556249       0.00000000
Si       2.66382553      -2.73155284      -0.03320137       0.00000000
Si       2.70235138       0.00167298       2.70547415       0.00000000
Si      -0.03003062      -2.70923554       2.70582425       0.00000000
