10
Lattice="16.290000149 0.0 0.0 0.0 16.290000149 0.0 0.0 0.0 29.1751946751" Properties=species:S:1:pos:R:3:initial_magmoms:R:1 pbc="T T T"
Si      -1.39198051      -1.34390872      -1.32860919       0.00000000
Si      -1.35796699       1.35523027       1.35527532       0.00000000
Si       1.32890563      -1.37095012       1.37146755       0.00000000
Si       1.36153450       1.34413678      -1.37138003       0.00000000
Si      -0.03461625      -2.73890451      -2.61672321       0.00000000
Si       2.70816365       2.70150104      -0.00924854       0.00000000
Si       2.70106121      -0.02195892       2.71238867       0.00000000
Si      -2.70081198       2.71344161      -0.00784813       0.00000000
Si       2.69115689      -2.72801465       0.03419333       0.00000000
Si      -0.01019754       2.71762814       2.70524075       0.00000000
