10
Lattice="16.290000149 0.0 0.0 0.0 16.290000149 0.0 0.0 0.0 29.1751946751" Properties=species:S:1:pos:R:3:initial_magmoms:R:1 pbc="T T T"
Si      -1.34572017       1.36109141      -1.35547954       0.00000000
Si       1.35663121       1.36276440       1.34999461       0.00000000
Si      -1.37575079      -1.34814412       1.35034471       0.00000000
Si       1.31810536      -1.37046142      -1.38868092       0.00000000
Si       0.01322748      -2.69656517       2.68128792       0.00000000
Si      -2.65951715      -0.02252907      -2.71965330       0.00000000
Si       2.70555725      -0.01148445      -2.69310387       0.00000000
Si      -0.02730204       2.71792136       2.68400121       0.00000000
Si      -2.68966634      -2.71326242      -0.04510485       0.00000000
Si       2.69884577       2.71746524      -0.01817615       0.00000000
