10
Lattice="10.86 0.0 0.0 0.0 10.86 0.0 0.0 0.0 10.86" Properties=species:S:1:pos:R:3:initial_magmoms:R:1 pbc="T T T"
Si       1.30417740      -1.33637730      -1.09378662       0.00000000
Si      -1.41082260       1.37862270      -1.09378662       0.00000000
Si       1.30417740       1.37862270       1.62121338       0.00000000
Si       2.66167740       0.02112270      -2.45128662       0.00000000
Si      -0.05332260      -2.69387730      -2.45128662       0.00000000
Si      -0.05332260       2.73612270      -2.45128662       0.00000000
Si      -2.76832260       0.02112270      -2.45128662       0.00000000
Si       2.66167740      -2.69387730       0.26371338       0.00000000
Si       2.66167740       2.73612270       0.26371338       0.00000000
Si      -2.70858174       2.71401174       0.28558542       0.00000000
