10
Lattice="10.86 0.0 0.0 0.0 10.86 0.0 0.0 0.0 10.86" Properties=species:S:1:pos:R:3:initial_magmoms:R:1 pbc="T T T"
Si       1.24418676      -1.12536750      -1.41726258       0.00000000
Si      -1.12891872       1.30020264      -1.37278002       0.00000000
Si      -1.12891872      -1.41479736       1.34221998       0.00000000
Si       1.58608128       1.30020264       1.34221998       0.00000000
Si      -2.48641872       2.65770264      -0.01528002       0.00000000
Si       0.19824930      -2.52477624      -2.62793538       0.00000000
Si      -2.48641872      -0.05729736       2.69971998       0.00000000
Si      -2.48641872      -0.05729736      -2.73028002       0.00000000
Si      -2.48641872      -2.77229736      -0.01528002       0.00000000
Si       0.22858128       2.65770264       2.69971998       0.00000000
