10
Lattice="10.86 0.0 0.0 0.0 10.86 0.0 0.0 0.0 10.86" Properties=species:S:1:pos:R:3:initial_magmoms:R:1 pbc="T T T"
Si       1.29536994      -1.17127272      -1.26943626       0.00000000
Si      -1.41963006      -1.17127272       1.44556374       0.00000000
Si      -1.41963006       1.54372728      -1.26943626       0.00000000
Si      -0.06213006      -2.52877272      -2.62693626       0.00000000
Si       2.65286994      -2.52877272       0.08806374       0.00000000
Si      -2.68843644       0.13534818       2.55873546       0.00000000
Si       2.65286994       0.18622728      -2.62693626       0.00000000
Si      -2.77713006      -2.52877272       0.08806374       0.00000000
Si      -0.06213006      -2.52877272       2.80306374       0.00000000
Si      -2.77713006       0.18622728      -2.62693626       0.00000000
