10
Lattice="16.28999089631971 0.0 0.0 0.0 16.28999089631971 0.0 0.0 0.0 34.45770212530097" Properties=species:S:1:pos:R:3:initial_magmoms:R:1 pbc="T T T"
Si      -1.91781355       1.50791710      -0.03721434       0.00000000
Si      -0.26077032      -2.21587983       1.17680010       0.00000000
Si       0.09448200       0.22799484      -2.58608645       0.00000000
Si       1.89165996       1.10326536       1.55331962       0.00000000
Si       1.19055465      -0.60427755       3.05062964       0.00000000
Si       0.43065873       3.05558765       1.76271920       0.00000000
Si       0.43267869      -1.99036107      -3.19512667       0.00000000
Si      -3.45241205       1.02486810      -1.73480844       0.00000000
Si      -3.28535810       1.27787787       1.91558196       0.00000000
Si      -1.44492300       2.17118074       3.10932492       0.00000000
