10
Lattice="16.28999089631971 0.0 0.0 0.0 16.28999089631971 0.0 0.0 0.0 34.45770212530097" Properties=species:S:1:pos:R:3:initial_magmoms:R:1 pbc="T T T"
Si      -1.70507430      -0.77538771      -1.40594395       0.00000000
Si       1.79144388      -1.63701468       0.01715995       0.00000000
Si       0.87267159       1.80602343      -1.38778473       0.00000000
Si       1.01454120       2.12090913       1.90034333       0.00000000
Si      -0.34239951      -2.03835141      -2.75720349       0.00000000
Si      -1.42760673       2.31145326       2.12621370       0.00000000
Si       2.58341481       2.47101381       0.06757159       0.00000000
Si       2.38211928       0.68740542      -2.75386109       0.00000000
Si       0.95562027      -3.43206584      -1.30515511       0.00000000
Si       1.38820122      -2.94903409       1.98824498       0.00000000
