10
Lattice="16.28999089631971 0.0 0.0 0.0 16.28999089631971 0.0 0.0 0.0 34.45770212530097" Properties=species:S:1:pos:R:3:initial_magmoms:R:1 pbc="T T T"
Si      -0.76831785      -1.66585612       1.45938787       0.00000000
Si       1.01866257       1.82162925       1.09530759       0.00000000
Si      -1.89112239       1.13011875      -0.91843611       0.00000000
Si       1.88630055      -0.97006950      -1.13424481       0.00000000
Si       2.26655802       2.33419410      -0.89700340       0.00000000
Si       0.56681055      -1.67915691       3.38505763       0.00000000
Si       3.20160402      -2.03921315       0.48633628       0.00000000
Si      -3.07887516      -1.32933893       1.90196285       0.00000000
Si      -2.98888920       2.41360785       0.76409997       0.00000000
Si       2.73186558      -1.17636606       2.60479699       0.00000000
