10
Lattice="16.28999089631971 0.0 0.0 0.0 16.28999089631971 0.0 0.0 0.0 34.45770212530097" Properties=species:S:1:pos:R:3:initial_magmoms:R:1 pbc="T T T"
Si      -1.35741312      -1.35778779      -1.35642820       0.00000000
Si      -1.35778779       1.35716877       1.35722073       0.00000000
Si       1.35783666      -1.35806472       1.35763422       0.00000000
Si       1.35666378       1.35984033      -1.35711736       0.00000000
Si       0.00065160       2.71366965      -2.71216725       0.00000000
Si      -0.00272043       2.71368594       2.71502724       0.00000000
Si      -2.71466334       2.71448415       0.00044795       0.00000000
Si       2.71515204       2.71441899       0.00037903       0.00000000
Si      -0.00146610      -2.71534752      -2.71444146       0.00000000
Si       2.71476108      -2.71529865       0.00006892       0.00000000
