10
Lattice="16.28999089631971 0.0 0.0 0.0 16.28999089631971 0.0 0.0 0.0 34.45770212530097" Properties=species:S:1:pos:R:3:initial_magmoms:R:1 pbc="T T T"
Si      -1.35690813       1.35532800      -1.36080433       0.00000000
Si       1.35940050      -1.36021500      -1.35890916       0.00000000
Si      -1.33920090      -1.37337732       1.36631757       0.00000000
Si       1.36432008       1.35070164       1.38127222       0.00000000
Si       2.58520671      -0.26510346       2.72064385       0.00000000
Si      -2.71107954       2.71163340      -0.00627131       0.00000000
Si      -2.71226871      -0.00236205      -2.71761157       0.00000000
Si       0.00244350       2.71239903      -2.71785277       0.00000000
Si      -2.71399545      -2.71871955       0.00058578       0.00000000
Si       2.71878471       2.71599912      -0.00075807       0.00000000
