10
Lattice="16.28999089631971 0.0 0.0 0.0 16.28999089631971 0.0 0.0 0.0 34.45770212530097" Properties=species:S:1:pos:R:3:initial_magmoms:R:1 pbc="T T T"
Si       1.36230012       1.34307792       1.36730306       0.00000000
Si       1.29837816      -1.28710548      -1.48212997       0.00000000
Si      -1.35246096      -1.37010303       1.36220332       0.00000000
Si      -1.21629285       1.47188295      -1.47424949       0.00000000
Si      -0.71716725      -2.06979111      -2.64663969       0.00000000
Si      -2.41134354      -0.23297958      -2.56474678       0.00000000
Si       2.29170978       0.48257496      -2.64467767       0.00000000
Si       0.59394969       2.22306372      -2.95271113       0.00000000
Si       2.71208952       2.70671382       0.00520656       0.00000000
Si       0.00548973       2.70120780       2.72190500       0.00000000
