10
Lattice="16.28999089631971 0.0 0.0 0.0 16.28999089631971 0.0 0.0 0.0 34.45770212530097" Properties=species:S:1:pos:R:3:initial_magmoms:R:1 pbc="T T T"
Si      -1.39501044       0.87112404      -1.69304568       0.00000000
Si      -0.58127607      -2.22462756      -0.62444283       0.00000000
Si      -0.92338236       0.56690829       2.12728189       0.00000000
Si       2.26562949       0.68691672       0.43147959       0.00000000
Si      -1.92591783      -2.78589951       1.24092592       0.00000000
Si      -0.55356678       3.09125556      -1.86726392       0.00000000
Si      -2.69353521      -0.90792315       2.38685190       0.00000000
Si       3.48931800      -1.22526864       0.94665698       0.00000000
Si      -3.72480624       0.59530176      -1.05998843       0.00000000
Si       0.77470353       0.75926061       3.76688364       0.00000000
