10
Lattice="16.28999089631971 0.0 0.0 0.0 16.28999089631971 0.0 0.0 0.0 34.45770212530097" Properties=species:S:1:pos:R:3:initial_magmoms:R:1 pbc="T T T"
Si      -0.51766688       0.40703823       2.21914617       0.00000000
Si      -0.52143150       2.16754740      -0.84941729       0.00000000
Si      -1.96623951      -1.10119423      -0.81599330       0.00000000
Si       2.27335421      -0.80420472      -0.26549674       0.00000000
Si      -2.50503126       1.67009967       2.03648579       0.00000000
Si      -1.11588455      -3.22902728      -1.45108356       0.00000000
Si      -0.61192408      -1.59389521       3.34994522       0.00000000
Si       3.64407626       1.14113079       0.08542069       0.00000000
Si       0.97582313       3.69587520       0.00723612       0.00000000
Si       2.25409943      -1.95076727      -2.41376338       0.00000000
