10
Lattice="16.28999089631971 0.0 0.0 0.0 16.28999089631971 0.0 0.0 0.0 34.45770212530097" Properties=species:S:1:pos:R:3:initial_magmoms:R:1 pbc="T T T"
Si       1.35661491      -1.35687555       1.35701398       0.00000000
Si      -1.35668007      -1.35746199      -1.35811663       0.00000000
Si      -1.35793440       1.35764118       1.35691061       0.00000000
Si       1.35734796       1.35858600      -1.35694507       0.00000000
Si       2.71334385       0.00045612       2.71451038       0.00000000
Si      -0.00215028       2.71410948       2.71406242       0.00000000
Si       0.00013032      -2.71559187      -2.71271857       0.00000000
Si       2.71221984      -0.00030951      -2.71702579       0.00000000
Si      -2.71549413       0.00022806       2.71395905       0.00000000
Si       2.71463076      -2.71484253      -0.00017229       0.00000000
