10
Lattice="16.28999089631971 0.0 0.0 0.0 16.28999089631971 0.0 0.0 0.0 34.45770212530097" Properties=species:S:1:pos:R:3:initial_magmoms:R:1 pbc="T T T"
Si       2.19126564       0.76540261       0.25322979       0.00000000
Si      -2.09393289       1.02824339      -0.14413665       0.00000000
Si      -0.80171235      -1.14753276       2.01219310       0.00000000
Si       0.67899978      -1.45601649      -1.90365128       0.00000000
Si       1.75868469       0.28237086      -3.04017030       0.00000000
Si      -0.33068700      -3.31292988       1.19554510       0.00000000
Si      -3.50971308      -1.03790106      -0.09282910       0.00000000
Si       3.34873530      -1.21986036       1.08617629       0.00000000
Si       2.59450830       2.07742202      -1.71785524       0.00000000
Si       2.11610358      -3.21523875       0.48754230       0.00000000
