10
Lattice="16.28999089631971 0.0 0.0 0.0 16.28999089631971 0.0 0.0 0.0 34.45770212530097" Properties=species:S:1:pos:R:3:initial_magmoms:R:1 pbc="T T T"
Si      -1.69153731       1.52529786       0.62423608       0.00000000
Si       1.19995398       0.58626081      -1.95892146       0.00000000
Si       1.91896200       0.66248172       1.22579898       0.00000000
Si      -0.84144366      -2.22013152       0.17421824       0.00000000
Si      -3.33834228      -0.16987212       0.12308298       0.00000000
Si       0.86706783       2.91045189      -1.42796243       0.00000000
Si       3.13530372      -0.88606197      -1.63243455       0.00000000
Si       0.55356678      -3.09125556       1.86726392       0.00000000
Si       2.20219623       2.89715111       0.49770733       0.00000000
Si      -1.44348948       3.24696908      -0.98538746       0.00000000
