10
Lattice="16.28999089631971 0.0 0.0 0.0 16.28999089631971 0.0 0.0 0.0 34.45770212530097" Properties=species:S:1:pos:R:3:initial_magmoms:R:1 pbc="T T T"
Si       0.18274122       2.09340902      -1.04089885       0.00000000
Si      -1.45595133      -1.52008506      -1.04231161       0.00000000
Si       1.93943853      -1.07484678       0.79976371       0.00000000
Si      -1.99943460       2.16831044      -2.05850428       0.00000000
Si      -0.24715188      -2.35142892      -2.91505431       0.00000000
Si       2.85474105      -2.28496572      -1.17621432       0.00000000
Si       0.31426668       3.88424366       0.74694003       0.00000000
Si       1.79484849      -1.61402949       3.20937770       0.00000000
Si      -1.27772244      -3.78711549       0.47351801       0.00000000
Si       3.89974455       0.12087180       1.43271760       0.00000000
