10
Lattice="16.28999089631971 0.0 0.0 0.0 16.28999089631971 0.0 0.0 0.0 34.45770212530097" Properties=species:S:1:pos:R:3:initial_magmoms:R:1 pbc="T T T"
Si      -1.33462341      -1.34523016       1.36225156       0.00000000
Si       1.28199042      -1.44207421      -1.36188975       0.00000000
Si       1.37883447       1.36866822       1.35966723       0.00000000
Si      -1.36099692       1.30991671      -1.44537047       0.00000000
Si       0.44953884       2.10161071      -2.90073510       0.00000000
Si       2.35621818       0.13693034      -2.80825058       0.00000000
Si      -2.68307703      -2.70886606      -0.03096026       0.00000000
Si      -2.69532711       0.01003775       2.71933446       0.00000000
Si      -2.68037289       2.73797956      -0.01155712       0.00000000
Si       0.02018331      -2.70296908       2.72126409       0.00000000
