10
Lattice="16.28999089631971 0.0 0.0 0.0 16.28999089631971 0.0 0.0 0.0 34.45770212530097" Properties=species:S:1:pos:R:3:initial_magmoms:R:1 pbc="T T T"
Si       0.17723520      -2.31783147      -0.09437970       0.00000000
Si      -0.46973844       0.86284709       2.11846071       0.00000000
Si      -1.31530347       1.06914365      -1.62058109       0.00000000
Si       2.30172813       0.48892643      -0.26639264       0.00000000
Si       1.15898463      -0.41627140       3.24019737       0.00000000
Si      -0.58119462      -2.37238668      -2.51065850       0.00000000
Si       3.09622401      -0.24196514       1.87512028       0.00000000
Si       2.24542989       2.82973427      -0.52079400       0.00000000
Si       0.54359730       2.72552714      -2.39650006       0.00000000
Si      -1.73866428      -0.38712370      -3.34360499       0.00000000
