10
Lattice="16.28999089631971 0.0 0.0 0.0 16.28999089631971 0.0 0.0 0.0 34.45770212530097" Properties=species:S:1:pos:R:3:initial_magmoms:R:1 pbc="T T T"
Si      -0.29090682      -0.06006938      -2.32593065       0.00000000
Si       0.51458481       2.31172042       0.22042604       0.00000000
Si      -1.85785821      -0.61395707       1.45242741       0.00000000
Si       1.94036706      -1.44389740       0.30233205       0.00000000
Si       0.17961354       2.50105909       2.52006545       0.00000000
Si      -1.77968250      -1.87261762      -2.52495845       0.00000000
Si       2.05807860       0.20036700      -3.00488559       0.00000000
Si       3.50088390      -0.44677606      -1.18596585       0.00000000
Si      -1.72633275       1.17687757       3.24026629       0.00000000
Si       1.42726464      -3.64711990      -0.58650488       0.00000000
