10
Lattice="16.28999089631971 0.0 0.0 0.0 16.28999089631971 0.0 0.0 0.0 34.45770212530097" Properties=species:S:1:pos:R:3:initial_magmoms:R:1 pbc="T T T"
Si      -1.07422776      -1.57900454       1.44636083       0.00000000
Si       0.42344226      -1.72281266      -1.67350815       0.00000000
Si       1.69083684       1.14308934       1.41568312       0.00000000
Si      -1.90667934       1.96468037      -0.09248452       0.00000000
Si       2.11149351       1.19434419      -1.94121019       0.00000000
Si       0.48637053       2.86730927      -1.57458004       0.00000000
Si      -2.35621818      -0.13693034       2.80825058       0.00000000
Si       0.37875879       2.60012069       2.78675930       0.00000000
Si      -1.68145380      -3.45771395       0.10315195       0.00000000
Si       1.86360858      -0.79899047      -3.33013203       0.00000000
