10
Lattice="16.28999089631971 0.0 0.0 0.0 16.28999089631971 0.0 0.0 0.0 34.45770212530097" Properties=species:S:1:pos:R:3:initial_magmoms:R:1 pbc="T T T"
Si      -1.35692442       1.35723393       1.35756531       0.00000000
Si       1.35759231      -1.35749457       1.35763422       0.00000000
Si       1.35860229       1.35664749      -1.35749639       0.00000000
Si      -1.35845568      -1.35658233      -1.35797880       0.00000000
Si       2.71397916      -0.00120546       2.71457929       0.00000000
Si       2.71213839       0.00234576      -2.71695687       0.00000000
Si       0.00089595       2.71402803       2.71530290       0.00000000
Si       2.71471221      -2.71487022       0.00010337       0.00000000
Si      -2.71464705      -2.71500706       0.00000000       0.00000000
Si      -2.71476108       2.71529865      -0.00006892       0.00000000
