10
Lattice="16.28999089631971 0.0 0.0 0.0 16.28999089631971 0.0 0.0 0.0 34.45770212530097" Properties=species:S:1:pos:R:3:initial_magmoms:R:1 pbc="T T T"
Si       1.35353610      -1.35430173      -1.35946048       0.00000000
Si       1.35637056       1.35855342       1.35756531       0.00000000
Si      -1.35860229      -1.35664749       1.35749639       0.00000000
Si      -1.35840681       1.35798327      -1.36159686       0.00000000
Si       2.71502172      -2.71254564      -0.00079253       0.00000000
Si       2.71389771       0.00081450       2.71533736       0.00000000
Si      -0.00100998      -2.71414206       2.71513061       0.00000000
Si       2.71301805       2.71669959       0.00003446       0.00000000
Si      -2.71705797      -2.71322982      -0.00048241       0.00000000
Si      -2.71552671       0.00058644       2.71506170       0.00000000
