10
Lattice="16.28999089631971 0.0 0.0 0.0 16.28999089631971 0.0 0.0 0.0 34.45770212530097" Properties=species:S:1:pos:R:3:initial_magmoms:R:1 pbc="T T T"
Si      -1.50944769       1.11861801       1.36607636       0.00000000
Si      -1.37331216      -1.33377633      -1.35532556       0.00000000
Si       1.33866333       1.38033315      -1.35746193       0.00000000
Si       1.35400851      -1.35024552       1.52844115       0.00000000
Si       0.20129553       1.78360839       2.82143268       0.00000000
Si      -0.59067540      -2.32442010       2.77102104       0.00000000
Si      -2.38211928      -0.68740542       2.75386109       0.00000000
Si       2.12921703       0.37706463       3.10488190       0.00000000
Si      -0.02047653      -2.69231835      -2.71478604       0.00000000
Si       2.71189404      -2.69646089       0.02984039       0.00000000
