10
Lattice="16.28999089631971 0.0 0.0 0.0 16.28999089631971 0.0 0.0 0.0 34.45770212530097" Properties=species:S:1:pos:R:3:initial_magmoms:R:1 pbc="T T T"
Si       1.35171162       1.38811977       1.42648075       0.00000000
Si      -1.14570828       1.57871277      -1.43195953       0.00000000
Si       1.59037641      -1.13829633      -1.44215901       0.00000000
Si      -0.90995940      -2.09236905       1.34901979       0.00000000
Si      -2.72184723       0.13893741       1.57068631       0.00000000
Si      -2.48712462       0.22374315      -2.82773845       0.00000000
Si       0.22740840      -2.49564429      -2.82987483       0.00000000
Si      -2.62070262      -2.75735943      -0.10633653       0.00000000
Si       2.91742497      -2.52861525       0.10492376       0.00000000
Si      -2.60376102       2.94513426       0.12173913       0.00000000
