10
Lattice="16.28999089631971 0.0 0.0 0.0 16.28999089631971 0.0 0.0 0.0 34.45770212530097" Properties=species:S:1:pos:R:3:initial_magmoms:R:1 pbc="T T T"
Si      -2.02579182      -0.35427492       0.99252021       0.00000000
Si       1.53062469      -1.38590433       1.11222633       0.00000000
Si      -0.25686072      -0.85678884      -2.17435113       0.00000000
Si       0.69027246       2.22249357       0.37724313       0.00000000
Si       1.58829129       0.19161927      -3.15991088       0.00000000
Si       3.52056222      -1.03485483      -0.23824069       0.00000000
Si       3.27231891       0.87943194      -1.66451469       0.00000000
Si      -2.73992913      -2.53141713       0.61975658       0.00000000
Si      -0.29054844      -3.24871470      -2.14709508       0.00000000
Si      -0.76470147       3.75864057      -0.75913806       0.00000000
