10
Lattice="16.28999089631971 0.0 0.0 0.0 16.28999089631971 0.0 0.0 0.0 34.45770212530097" Properties=species:S:1:pos:R:3:initial_magmoms:R:1 pbc="T T T"
Si      -1.39743127      -1.36989126       1.33425505       0.00000000
Si       1.25509128       1.52951697       1.32432778       0.00000000
Si       1.87030105      -0.26868726      -1.59509030       0.00000000
Si      -1.88868880       0.30845115      -1.61114760       0.00000000
Si       1.08543419       1.74231324      -2.63116506       0.00000000
Si      -1.04213008      -1.21138956      -3.15867832       0.00000000
Si      -1.24272514       2.46034386      -2.27948956       0.00000000
Si       0.02129741      -2.55990834       2.72058911       0.00000000
Si       1.18736072      -2.16525051      -2.87726211       0.00000000
Si      -2.71576468       0.15882750       2.68066984       0.00000000
