10
Lattice="16.28999089631971 0.0 0.0 0.0 16.28999089631971 0.0 0.0 0.0 34.45770212530097" Properties=species:S:1:pos:R:3:initial_magmoms:R:1 pbc="T T T"
Si       1.35593073      -1.35887922      -1.36032192       0.00000000
Si       1.35444834       1.34907264       1.37351923       0.00000000
Si      -1.36050822       1.35752715      -1.36018409       0.00000000
Si      -1.37440359      -1.35645201       1.39484856       0.00000000
Si      -0.11502369       2.68405443       2.71013424       0.00000000
Si       2.71386513      -2.71254564      -0.00354915       0.00000000
Si      -2.71581993      -2.71142163      -0.00093036       0.00000000
Si       2.71246419       2.71795392      -0.00289445       0.00000000
Si       2.71282257       0.00013032      -2.71788723       0.00000000
Si      -2.71741635       2.71521720      -0.00106819       0.00000000
