10
Lattice="16.28999089631971 0.0 0.0 0.0 16.28999089631971 0.0 0.0 0.0 34.45770212530097" Properties=species:S:1:pos:R:3:initial_magmoms:R:1 pbc="T T T"
Si       0.14978655       1.56616947       1.70851720       0.00000000
Si      -2.15420589      -0.97311573      -0.21553305       0.00000000
Si       1.45497393      -1.53614700       1.13638119       0.00000000
Si       0.51588801       1.03856895      -2.13286404       0.00000000
Si      -0.26432154      -0.66844386      -3.52002853       0.00000000
Si      -2.04714801      -1.80206496      -2.42833900       0.00000000
Si       2.48746671       2.05776909       1.84428062       0.00000000
Si      -0.31672647       0.44417943       3.75210128       0.00000000
Si      -1.07390196       3.47835483       1.19333981       0.00000000
Si       3.68740440       1.22279256      -0.09978956       0.00000000
