10
Lattice="16.28999089631971 0.0 0.0 0.0 16.28999089631971 0.0 0.0 0.0 34.45770212530097" Properties=species:S:1:pos:R:3:initial_magmoms:R:1 pbc="T T T"
Si      -0.14978655      -1.56616947      -1.70851720       0.00000000
Si      -1.22368851       1.91218536      -0.51517739       0.00000000
Si      -0.46651302      -1.12199004       2.04358408       0.00000000
Si       2.33768016       0.49159962       0.13576342       0.00000000
Si       1.32058143      -2.57720832       1.77636445       0.00000000
Si       1.30518738      -3.10231647      -0.57213601       0.00000000
Si       3.04722369      -1.04339079       1.79018200       0.00000000
Si      -1.16577756       3.20943951       1.51166024       0.00000000
Si      -3.48931800       1.22526864      -0.94665698       0.00000000
Si      -1.13784021       0.43834761       3.69703784       0.00000000
