10
Lattice="16.28999089631971 0.0 0.0 0.0 16.28999089631971 0.0 0.0 0.0 34.45770212530097" Properties=species:S:1:pos:R:3:initial_magmoms:R:1 pbc="T T T"
Si       1.78709445      -1.45521828      -0.26721963       0.00000000
Si      -0.67132719       1.56033765       1.65345376       0.00000000
Si       0.46651302       1.12199004      -2.04358408       0.00000000
Si      -1.35299853      -1.92435399       0.48754230       0.00000000
Si       3.51373671       0.07859925      -0.25340208       0.00000000
Si       1.77170040      -1.98032643      -2.61572009       0.00000000
Si       2.80419318       1.61358966      -1.90782066       0.00000000
Si      -1.18517895       0.32373117       3.54997229       0.00000000
Si      -1.63100367      -1.89684018       2.82980591       0.00000000
Si       0.31672647      -0.44417943      -3.75210128       0.00000000
