10
Lattice="16.28999089631971 0.0 0.0 0.0 16.28999089631971 0.0 0.0 0.0 34.45770212530097" Properties=species:S:1:pos:R:3:initial_magmoms:R:1 pbc="T T T"
Si       1.75154967      -1.32383943       0.86519893       0.00000000
Si      -1.52511867      -1.61264484      -0.86202882       0.00000000
Si       0.61312302       1.34521191      -1.90361682       0.00000000
Si      -0.91530252       1.21011894       1.97597803       0.00000000
Si      -3.10189293      -0.06646320      -1.73883999       0.00000000
Si      -1.55305602       1.15844706      -3.04740642       0.00000000
Si      -2.03897043      -2.84925132       1.03448971       0.00000000
Si       1.04500350       2.40583752       2.60893192       0.00000000
Si       2.97611784       0.87964371       2.21287487       0.00000000
Si      -2.85474105       2.28496572       1.17621432       0.00000000
