10
Lattice="16.28999089631971 0.0 0.0 0.0 16.28999089631971 0.0 0.0 0.0 34.45770212530097" Properties=species:S:1:pos:R:3:initial_magmoms:R:1 pbc="T T T"
Si       1.84043510       0.89330288       1.19374296       0.00000000
Si      -0.88905933      -1.92020886       1.09912551       0.00000000
Si      -1.90900881       1.41400295      -0.22357001       0.00000000
Si       1.36754454       0.23003923      -1.95279630       0.00000000
Si       0.41715432       2.15479070       2.59650646       0.00000000
Si      -2.32116210      -0.57947472       2.57360241       0.00000000
Si      -0.16705395      -0.25300976      -3.65039040       0.00000000
Si      -1.00157436       3.34480778       1.21017240       0.00000000
Si      -3.72205323       0.71240405       1.18990782       0.00000000
Si       3.28535810      -1.27787787      -1.91558196       0.00000000
