10
Lattice="16.28999089631971 0.0 0.0 0.0 16.28999089631971 0.0 0.0 0.0 34.45770212530097" Properties=species:S:1:pos:R:3:initial_magmoms:R:1 pbc="T T T"
Si      -1.35534429      -1.35692856      -1.35777205       0.00000000
Si       1.35872281      -1.35328428       1.35946048       0.00000000
Si      -1.35493704       1.35964322       1.35980506       0.00000000
Si       1.35944786       1.35776987      -1.35787543       0.00000000
Si      -2.71290402      -2.71529118       0.00000000       0.00000000
Si      -2.71417464       2.71418930      -0.00062024       0.00000000
Si      -2.71344159       0.00052454      -2.71509616       0.00000000
Si       0.00216657      -2.71465587      -2.71499278       0.00000000
Si       0.00208512       2.71593233      -2.71482049       0.00000000
Si       2.71686479       2.71449881      -0.00010337       0.00000000
