10
Lattice="16.28999089631971 0.0 0.0 0.0 16.28999089631971 0.0 0.0 0.0 34.45770212530097" Properties=species:S:1:pos:R:3:initial_magmoms:R:1 pbc="T T T"
Si      -0.05629824       2.34080784      -0.25440136       0.00000000
Si      -2.30172813      -0.48892643       0.26639264       0.00000000
Si       0.79449588      -0.73089157       2.14151293       0.00000000
Si       0.93467133      -1.54731284      -1.68884184       0.00000000
Si      -2.12449293      -2.80675790       0.17201295       0.00000000
Si      -1.75813083       2.23660071      -2.13010742       0.00000000
Si      -2.77146657       0.37392066       2.38485335       0.00000000
Si       2.38321071      -0.06504271      -2.81347295       0.00000000
Si       2.18694879       3.05026992      -0.06181715       0.00000000
Si      -1.14274350      -0.90519783       3.50659002       0.00000000
