10
Lattice="16.28999089631971 0.0 0.0 0.0 16.28999089631971 0.0 0.0 0.0 34.45770212530097" Properties=species:S:1:pos:R:3:initial_magmoms:R:1 pbc="T T T"
Si      -1.35661491      -1.35643572      -1.35866795       0.00000000
Si      -1.35773892       1.35692442       1.35746193       0.00000000
Si       1.35736274      -1.35816246       1.35694507       0.00000000
Si       1.36019501       1.35684297      -1.35718627       0.00000000
Si       2.71408083      -0.00055386      -2.71099569       0.00000000
Si       2.71492465       2.71422351      -0.00006892       0.00000000
Si      -0.00143352       2.71502172       2.71423471       0.00000000
Si       2.71477967      -0.00143352       2.71471712       0.00000000
Si      -2.71526607       2.71466334      -0.00031012       0.00000000
Si      -2.71625976      -0.00174303       2.71420026       0.00000000
