10
Lattice="16.28999089631971 0.0 0.0 0.0 16.28999089631971 0.0 0.0 0.0 34.45770212530097" Properties=species:S:1:pos:R:3:initial_magmoms:R:1 pbc="T T T"
Si      -1.34526078      -1.33926606      -1.39574446       0.00000000
Si       1.37006527       1.37301894      -1.39054135       0.00000000
Si      -1.37013561       1.34019459       1.53615968       0.00000000
Si       1.42041879      -1.41239187       1.47241289       0.00000000
Si       0.57927240       2.18253420       2.72209107       0.00000000
Si       2.32780420       0.49511826       2.72887924       0.00000000
Si      -2.68692147      -2.70362849      -0.01133659       0.00000000
Si      -2.69718417       2.73051351      -0.01092310       0.00000000
Si       2.73386340      -2.69516747      -0.03835144       0.00000000
Si       0.00967626      -2.69890928      -2.75554952       0.00000000
