10
Lattice="16.28999089631971 0.0 0.0 0.0 16.28999089631971 0.0 0.0 0.0 34.45770212530097" Properties=species:S:1:pos:R:3:initial_magmoms:R:1 pbc="T T T"
Si       0.84655872      -1.51984071      -1.54753072       0.00000000
Si       0.64596366       2.15189271      -0.66834196       0.00000000
Si      -2.40795522      -0.42295356      -0.10898977       0.00000000
Si       1.88868880      -0.30845115       1.61114760       0.00000000
Si      -0.77696784       2.96344422       1.22156068       0.00000000
Si       0.49125753      -1.67834241       2.94540265       0.00000000
Si       2.97412299       1.43386209      -1.02001747       0.00000000
Si       0.94864815      -0.38498157      -3.58088086       0.00000000
Si      -2.06741277       1.40361156       2.85385537       0.00000000
Si       3.75898985      -0.57713841       0.01605730       0.00000000
