10
Lattice="16.28999089631971 0.0 0.0 0.0 16.28999089631971 0.0 0.0 0.0 34.45770212530097" Properties=species:S:1:pos:R:3:initial_magmoms:R:1 pbc="T T T"
Si      -1.19431764       1.43425305      -1.36223088       0.00000000
Si       1.34218197       1.37197638       1.35420223       0.00000000
Si      -1.37376828      -1.33993395       1.35699331       0.00000000
Si       1.43910747      -1.19571858      -1.48852877       0.00000000
Si       0.55361565       2.24267688      -2.80951173       0.00000000
Si       2.35729332       0.55083006      -2.83914537       0.00000000
Si       2.68868079      -2.67898824      -0.00934493       0.00000000
Si      -0.01461213      -2.69816157       2.71355934       0.00000000
Si      -2.71896390      -2.69278587      -0.01357290       0.00000000
Si       2.70274156       0.01734885       2.71297356       0.00000000
