10
Lattice="16.28999089631971 0.0 0.0 0.0 16.28999089631971 0.0 0.0 0.0 34.45770212530097" Properties=species:S:1:pos:R:3:initial_magmoms:R:1 pbc="T T T"
Si       1.35851988      -1.35739683      -1.35908145       0.00000000
Si      -1.35897696       1.35905841      -1.35842675       0.00000000
Si       1.36342480       1.36870209       1.35639374       0.00000000
Si      -1.37279088      -1.36839258       1.36707564       0.00000000
Si      -0.07092666       2.64627792       2.67991482       0.00000000
Si       2.62719323      -0.04908177       2.72836238       0.00000000
Si      -2.71453302      -2.71143792      -0.00196409       0.00000000
Si      -0.00042611      -2.71373481      -2.71592314       0.00000000
Si       2.71590857      -2.71467963      -0.00485854       0.00000000
Si       2.71481714       0.00099369      -2.71616435       0.00000000
