10
Lattice="16.28999089631971 0.0 0.0 0.0 16.28999089631971 0.0 0.0 0.0 34.45770212530097" Properties=species:S:1:pos:R:3:initial_magmoms:R:1 pbc="T T T"
Si      -0.86468949      -0.54722997      -2.15091988       0.00000000
Si      -2.15928837       0.17236449       1.01705410       0.00000000
Si       1.52549597      -1.53987741       1.09575554       0.00000000
Si      -0.02342502       2.36885922      -0.58760752       0.00000000
Si      -2.70177795       0.81401130      -1.27658966       0.00000000
Si       1.40276792       1.58268753      -2.37758278       0.00000000
Si      -0.70644843      -2.98942677       1.33537453       0.00000000
Si       3.48538301      -0.02106297       0.75055809       0.00000000
Si       3.27926564       0.12116502      -1.57930074       0.00000000
Si       1.18799712       3.43235187       1.05395832       0.00000000
