10
Lattice="16.28999089631971 0.0 0.0 0.0 16.28999089631971 0.0 0.0 0.0 34.45770212530097" Properties=species:S:1:pos:R:3:initial_magmoms:R:1 pbc="T T T"
Si       0.47757393       1.95525612      -1.27648629       0.00000000
Si       0.74082033       0.09169641       2.29126618       0.00000000
Si      -2.43069606      -0.09252720       0.25819171       0.00000000
Si       1.93041387      -1.20653514      -0.95816586       0.00000000
Si      -0.01081656      -2.51533890      -2.04272264       0.00000000
Si       0.78320691      -2.23267482       3.03562188       0.00000000
Si      -3.21090561      -1.79954001      -1.12897278       0.00000000
Si       2.79858942       1.23672051       2.44474087       0.00000000
Si       2.63686230       1.78289163      -2.29354039       0.00000000
Si      -0.85136427      -0.86037264      -3.74241866       0.00000000
