10
Lattice="16.28999089631971 0.0 0.0 0.0 16.28999089631971 0.0 0.0 0.0 34.45770212530097" Properties=species:S:1:pos:R:3:initial_magmoms:R:1 pbc="T T T"
Si      -0.91818585      -1.74654864       1.35061660       0.00000000
Si       1.73931981       1.00709667       1.35206383       0.00000000
Si      -1.80367767       1.69184682       0.02963364       0.00000000
Si       1.92639906      -0.05550003      -1.64204825       0.00000000
Si       2.97309509       1.95763446      -0.48881724       0.00000000
Si       0.35328123       2.19561507       2.83051027       0.00000000
Si      -2.32129242      -2.85200433      -0.26370494       0.00000000
Si      -2.35729332      -0.55083006       2.83914537       0.00000000
Si      -0.94055202       3.53118330       1.34909013       0.00000000
Si      -3.55161096       0.88342299       1.47691449       0.00000000
