10
Lattice="16.28999089631971 0.0 0.0 0.0 16.28999089631971 0.0 0.0 0.0 34.45770212530097" Properties=species:S:1:pos:R:3:initial_magmoms:R:1 pbc="T T T"
Si      -2.08686303      -0.97919190      -0.43609692       0.00000000
Si      -0.99605205       2.12428020       0.38051662       0.00000000
Si       1.73527596       0.29279646      -1.61882375       0.00000000
Si       0.48223287      -1.30952052       1.94251959       0.00000000
Si       0.52385382      -0.77069619      -3.26038960       0.00000000
Si       2.29920385       0.07618833       2.49332626       0.00000000
Si      -3.02202306      -0.40899303       1.72543594       0.00000000
Si      -1.25160957      -0.58533228       3.37275623       0.00000000
Si      -1.61200953      -2.96719092      -1.65572797       0.00000000
Si      -0.85587660       1.30785894      -3.44983815       0.00000000
