10
Lattice="16.28999089631971 0.0 0.0 0.0 16.28999089631971 0.0 0.0 0.0 34.45770212530097" Properties=species:S:1:pos:R:3:initial_magmoms:R:1 pbc="T T T"
Si       1.81697098       1.38570885       0.55080668       0.00000000
Si      -1.73384244       0.72418824       1.43023664       0.00000000
Si       0.22677309      -2.37620601       0.12297961       0.00000000
Si      -0.48223287       1.30952052      -1.94251959       0.00000000
Si      -2.56909590       0.33032862      -2.37861651       0.00000000
Si      -0.48764115       2.33523666       2.72767322       0.00000000
Si      -3.50425593       0.90052749      -0.21708364       0.00000000
Si       0.85892283      -2.61858492       2.38902274       0.00000000
Si       3.54014999       0.96879888      -0.91302624       0.00000000
Si       0.96661602       3.51354190       1.18589694       0.00000000
