10
Lattice="16.28999089631971 0.0 0.0 0.0 16.28999089631971 0.0 0.0 0.0 34.45770212530097" Properties=species:S:1:pos:R:3:initial_magmoms:R:1 pbc="T T T"
Si       0.34981146       1.70064342      -1.58522747       0.00000000
Si      -1.50342039      -1.22329755      -1.37951488       0.00000000
Si       2.06730593      -1.07162136       0.78184570       0.00000000
Si      -1.27803195       1.34387613       1.61575701       0.00000000
Si       1.30261097       3.36982158      -0.25922544       0.00000000
Si       3.75283223       0.51321645       0.12332418       0.00000000
Si       1.96143070       0.96353721      -3.12180064       0.00000000
Si      -2.69188992      -2.77902513      -0.06812292       0.00000000
Si      -0.13225851       3.52844562       1.58364242       0.00000000
Si      -0.15939765      -2.26960425      -3.22203815       0.00000000
