10
Lattice="16.28999089631971 0.0 0.0 0.0 16.28999089631971 0.0 0.0 0.0 34.45770212530097" Properties=species:S:1:pos:R:3:initial_magmoms:R:1 pbc="T T T"
Si      -0.31438886      -0.23558598       2.29547003       0.00000000
Si       2.32841115      -0.32591403      -0.19399697       0.00000000
Si      -0.42032110       2.17723995      -0.80730995       0.00000000
Si      -1.58016977      -1.32291090      -1.17052880       0.00000000
Si       0.68259987       1.87263324      -2.88514501       0.00000000
Si      -2.82889601      -2.09935746       0.69053274       0.00000000
Si       1.18286577       1.29274182       3.15212344       0.00000000
Si       2.79917586       1.11071736      -2.01636248       0.00000000
Si       3.11551137       0.55141650       1.92177604       0.00000000
Si      -2.68854137       2.26730736      -1.39860445       0.00000000
