10
Lattice="16.28999089631971 0.0 0.0 0.0 16.28999089631971 0.0 0.0 0.0 34.45770212530097" Properties=species:S:1:pos:R:3:initial_magmoms:R:1 pbc="T T T"
Si       1.35689184       1.35693062       1.35618700       0.00000000
Si       1.35726651      -1.35733103      -1.35684169       0.00000000
Si      -1.35730886       1.35710329      -1.35711736       0.00000000
Si      -1.35638685      -1.35824327       1.35884024       0.00000000
Si      -2.71430736      -0.00153187      -2.71399351       0.00000000
Si      -2.71488381       2.71447569      -0.00003446       0.00000000
Si       0.00021177      -2.71428803       2.71513061       0.00000000
Si      -0.00027693      -2.71365272      -2.71585423       0.00000000
Si       2.71507059       2.71457343       0.00024120       0.00000000
Si      -0.00143352       2.71506213      -2.71478604       0.00000000
