10
Lattice="16.28999089631971 0.0 0.0 0.0 16.28999089631971 0.0 0.0 0.0 34.45770212530097" Properties=species:S:1:pos:R:3:initial_magmoms:R:1 pbc="T T T"
Si       1.35542574       1.33985250       1.38810519       0.00000000
Si      -1.35929461      -1.37549502       1.38717483       0.00000000
Si       1.49234319      -1.24602210      -1.44672811       0.00000000
Si      -1.32209966       1.52563995      -1.45104221       0.00000000
Si       2.72489346       2.69345376      -0.00162640       0.00000000
Si      -2.70813824       2.71415835       0.02740423       0.00000000
Si       2.70863604      -2.71790505       0.02752138       0.00000000
Si      -2.73003200      -2.71127502       0.02669440       0.00000000
Si      -0.00273672       2.70044217       2.74856494       0.00000000
Si       2.71412577      -0.01669725       2.74942638       0.00000000
