10
Lattice="16.28999089631971 0.0 0.0 0.0 16.28999089631971 0.0 0.0 0.0 34.45770212530097" Properties=species:S:1:pos:R:3:initial_magmoms:R:1 pbc="T T T"
Si      -1.89921593       0.65477655       1.31094401       0.00000000
Si      -0.53544709      -0.33892974      -2.33158172       0.00000000
Si       1.13066609      -2.11991544       0.32807197       0.00000000
Si       1.58126378       1.67369976       0.95913067       0.00000000
Si       1.42443995       1.17988470      -2.67677917       0.00000000
Si       0.90484271       1.33985250       3.25229203       0.00000000
Si       3.31579040      -1.44624249      -0.49760395       0.00000000
Si      -1.26706619       0.41239764       3.57698714       0.00000000
Si      -2.12598902       3.03098256       1.18796440       0.00000000
Si      -2.76739148      -1.78847910      -2.09196272       0.00000000
