10
Lattice="16.290000149 0.0 0.0 0.0 16.290000149 0.0 0.0 0.0 29.1751946751" Properties=species:S:1:pos:R:3:initial_magmoms:R:1 pbc="T T T"
H        0.43816842       1.28422216      -0.67563916       0.00000000
Si      -0.82186309       0.96343948       1.95138290       0.00000000
Si      -1.88043617      -0.71302960      -1.26585335       0.00000000
Si       2.00647190      -1.36886500      -0.07145005       0.00000000
H        0.97047676      -0.26337672      -2.47887042       0.00000000
H       -0.64876555      -2.65647548      -1.04473455       0.00000000
Si      -2.32207436       2.28719747       0.66426083       0.00000000
Si       3.19243441       0.64988956      -0.69600344       0.00000000
Si       0.79144966      -2.94373335      -1.48662204       0.00000000
Si       2.00767736       0.83895130      -2.69704252       0.00000000
