10
Lattice="16.290000149 0.0 0.0 0.0 16.290000149 0.0 0.0 0.0 29.1751946751" Properties=species:S:1:pos:R:3:initial_magmoms:R:1 pbc="T T T"
Si       1.12316293      -0.05794353      -1.01252513       0.00000000
H        0.65725264       0.93415006       1.61776454       0.00000000
H       -0.91981486       1.77086963       0.42709567       0.00000000
Si      -2.27704880       1.19493667       0.15559131       0.00000000
Si      -2.71590140      -1.01915128       0.76281464       0.00000000
Si       0.12346191       0.67587211       3.00355712       0.00000000
Si       1.34877943      -2.19253628      -1.92559202       0.00000000
Si       3.18580275       0.63692272      -0.11404584       0.00000000
Si       0.89549389       1.45557667      -2.85027064       0.00000000
Si      -1.66649960      -0.92681956       2.87997099       0.00000000
