10
Lattice="16.290000149 0.0 0.0 0.0 16.290000149 0.0 0.0 0.0 29.1751946751" Properties=species:S:1:pos:R:3:initial_magmoms:R:1 pbc="T T T"
Si      -1.39810555       1.42716691      -1.22398694       0.00000000
Si      -1.32817258      -1.38183184       1.37524866       0.00000000
Si       1.18890937      -1.48195018      -1.43121835       0.00000000
Si       1.31206177       1.44855568       1.36478643       0.00000000
H        3.23999958       1.71970274      -0.51327920       0.00000000
Si       0.00566892       2.65919591      -2.64406037       0.00000000
Si       2.66538611      -2.68916951       0.02132707       0.00000000
Si       2.52099155      -0.15799671      -2.83244460       0.00000000
Si       2.73217512       0.07607430       2.70122624       0.00000000
Si      -2.90533782       0.14452488      -2.51110901       0.00000000
