10
Lattice="16.290000149 0.0 0.0 0.0 16.290000149 0.0 0.0 0.0 29.1751946751" Properties=species:S:1:pos:R:3:initial_magmoms:R:1 pbc="T T T"
H       -1.03720060      -1.10232802       0.21817211       0.00000000
Si       1.48899072      -1.07391826      -1.42205734       0.00000000
Si       1.18475705      -0.18906174       2.00103908       0.00000000
Si      -1.26237727       1.64726111      -1.14407608       0.00000000
H       -1.56950893       0.44527086       2.02140336       0.00000000
Si      -0.00120546      -2.20781630       2.62559247       0.00000000
Si      -2.56271024      -0.02438613      -2.31820262       0.00000000
Si      -2.00767736      -0.83895130       2.69704252       0.00000000
Si       0.06201603      -2.50849712      -2.58419287       0.00000000
Si       3.05518953      -2.14884650      -0.05700833       0.00000000
