10
Lattice="16.290000149 0.0 0.0 0.0 16.290000149 0.0 0.0 0.0 29.1751946751" Properties=species:S:1:pos:R:3:initial_magmoms:R:1 pbc="T T T"
Si       1.34794376      -1.33594291       1.37531868       0.00000000
Si      -1.27216658       1.36041049       1.42272837       0.00000000
Si       1.34225855       1.36914193      -1.36239407       0.00000000
Si      -1.37967016      -1.36138789      -1.33310217       0.00000000
Si       2.66293773       0.13015710       2.65357148       0.00000000
Si       0.01719898      -2.69783254      -2.68149214       0.00000000
Si      -2.66350136       2.71738379       0.07328809       0.00000000
Si      -2.68353806       0.01971090      -2.70745807       0.00000000
Si      -0.06214146      -2.62890629       2.76542918       0.00000000
Si       2.72073465       0.02379969      -2.71979917       0.00000000
