10
Lattice="16.290000149 0.0 0.0 0.0 16.290000149 0.0 0.0 0.0 29.1751946751" Properties=species:S:1:pos:R:3:initial_magmoms:R:1 pbc="T T T"
Si       1.68054158      -1.67668085      -0.25043987       0.00000000
Si      -1.86158864      -0.84264913      -1.25027379       0.00000000
Si      -0.63188911       0.33309792       2.33028115       0.00000000
Si       0.69351418       1.86069269      -1.41911064       0.00000000
H        2.21902382       0.78275080       1.11726408       0.00000000
H       -1.06184737       2.49546512       0.11734263       0.00000000
H       -2.61475679      -0.29059731       1.24963194       0.00000000
H        0.59978152      -1.61034796       2.55139995       0.00000000
H       -0.49221864       2.37333899      -2.21740232       0.00000000
H       -3.26472780       0.13361058       1.20566492       0.00000000
