10
Lattice="16.290000149 0.0 0.0 0.0 16.290000149 0.0 0.0 0.0 29.1751946751" Properties=species:S:1:pos:R:3:initial_magmoms:R:1 pbc="T T T"
Si       1.41892417      -1.33191928      -1.30127203       0.00000000
Si       1.37349136       1.32634810       1.36411540       0.00000000
Si      -1.35034327      -1.37554390       1.34818575       0.00000000
Si      -1.35281935       1.31887099      -1.40746974       0.00000000
Si       0.10720449      -2.69161301      -2.64735425       0.00000000
Si       0.00412137       2.70573644       2.68645193       0.00000000
Si       2.75120184       2.64534941      -0.00035010       0.00000000
Si      -2.72106533      -0.01200573       2.68394286       0.00000000
Si      -2.71523351       2.69335604      -0.05832121       0.00000000
Si      -2.69746112      -2.73178415      -0.01441255       0.00000000
