10
Lattice="16.290000149 0.0 0.0 0.0 16.290000149 0.0 0.0 0.0 29.1751946751" Properties=species:S:1:pos:R:3:initial_magmoms:R:1 pbc="T T T"
Si      -1.43350372       1.31891986      -1.28475887       0.00000000
Si      -1.37771047      -1.31900131       1.36446550       0.00000000
Si       1.33475374       1.40110291       1.34302174       0.00000000
Si       1.34669431      -1.28045917      -1.45913901       0.00000000
Si      -0.07451046       2.65807190      -2.59892926       0.00000000
Si       2.68677488      -2.61604370      -0.03608972       0.00000000
Si      -0.02217069      -2.68967450       2.70416127       0.00000000
Si      -2.75120184      -2.64534941       0.00035010       0.00000000
Si       2.70001865       0.06234183       2.70585343       0.00000000
Si      -2.74708047       0.06038703       2.68680203       0.00000000
