10
Lattice="16.290000149 0.0 0.0 0.0 16.290000149 0.0 0.0 0.0 29.1751946751" Properties=species:S:1:pos:R:3:initial_magmoms:R:1 pbc="T T T"
Si      -2.19388835       0.72291763       0.46875785       0.00000000
Si      -0.26536410      -2.03007611       1.19624133       0.00000000
Si       1.57675798       1.30798927       1.20473131       0.00000000
Si      -0.28432566       0.88677874      -2.24071330       0.00000000
H        2.24963273      -0.95114053      -1.63588234       0.00000000
H        0.81142120      -1.86183299      -2.18484280       0.00000000
H        1.61746669      -2.61019559      -0.53256400       0.00000000
H        1.04783797      -2.48806946       1.80218095       0.00000000
Si      -2.14975874       2.86758900      -0.51360013       0.00000000
Si      -2.41119695      -0.08320932      -2.92043699       0.00000000
