10
Lattice="16.290000149 0.0 0.0 0.0 16.290000149 0.0 0.0 0.0 29.1751946751" Properties=species:S:1:pos:R:3:initial_magmoms:R:1 pbc="T T T"
Si       1.34395759       1.37855755      -1.31317551       0.00000000
Si      -1.36495540       1.37003788       1.34340101       0.00000000
Si       1.54497619      -1.32449104       1.18559239       0.00000000
Si      -1.40869405      -1.32501232      -1.35670490       0.00000000
Si       2.62778879      -2.74449036      -0.31287479       0.00000000
Si       2.57378744       2.81138361       0.11389996       0.00000000
Si       2.64787436       0.03280806      -2.74559005       0.00000000
Si      -0.05580954       2.71970512      -2.67434422       0.00000000
Si      -2.71233389       0.08004906       2.71364321       0.00000000
Si      -2.78456376      -2.64557747       0.00653524       0.00000000
