10
Lattice="16.290000149 0.0 0.0 0.0 16.290000149 0.0 0.0 0.0 29.1751946751" Properties=species:S:1:pos:R:3:initial_magmoms:R:1 pbc="T T T"
Si      -1.46474306      -1.38256489       1.21418408       0.00000000
Si       1.33884253      -1.33094188      -1.40761562       0.00000000
Si      -1.34716672       1.35291709      -1.38550082       0.00000000
Si       1.41107239       1.39468465       1.29949235       0.00000000
Si      -0.11694591       2.65756691       2.51513518       0.00000000
Si      -0.04603554      -2.60514569       2.58956110       0.00000000
Si       2.75845089       2.68467347      -0.07074985       0.00000000
Si      -2.80655526      -0.08120565       2.63624142       0.00000000
Si      -0.01045818       2.70275537      -2.75615147       0.00000000
Si       2.75962377      -2.70299972      -0.15538709       0.00000000
