10
Lattice="16.290000149 0.0 0.0 0.0 16.290000149 0.0 0.0 0.0 29.1751946751" Properties=species:S:1:pos:R:3:initial_magmoms:R:1 pbc="T T T"
H       -0.59624659      -0.09096336      -1.40201398       0.00000000
Si      -1.71294239       0.44416314       1.52551258       0.00000000
Si       0.47708523      -2.03053223       1.05754246       0.00000000
H        1.51601257      -0.84875788      -1.70593198       0.00000000
Si       1.89332156       1.50293170       0.31903075       0.00000000
Si       0.79713487      -0.92921419      -3.03066087       0.00000000
Si      -2.55979433       2.28840293       0.40378469       0.00000000
Si      -0.33971166       1.48124971       3.15663936       0.00000000
Si       2.06878115      -1.21730284       2.62072021       0.00000000
Si       0.92750374       2.96334651       1.82998491       0.00000000
