10
Lattice="16.290000149 0.0 0.0 0.0 16.290000149 0.0 0.0 0.0 29.1751946751" Properties=species:S:1:pos:R:3:initial_magmoms:R:1 pbc="T T T"
Si       0.61493122       0.51647445      -2.18166271       0.00000000
Si      -2.30140235      -0.06222780       0.45034830       0.00000000
Si       0.77051701       2.04597515       0.87907779       0.00000000
Si       1.22743522      -1.86561064       0.95385381       0.00000000
Si       1.70000813       1.00449028       2.71311805       0.00000000
Si       3.03712392      -0.53916643       1.55719684       0.00000000
Si       1.29902977      -1.53396904      -2.94789085       0.00000000
Si      -0.23921865      -0.02221956       3.61553600       0.00000000
Si      -2.44291358       0.35860806       2.80741228       0.00000000
Si      -3.16343658       2.01381869      -0.34105803       0.00000000
