10
Lattice="16.290000149 0.0 0.0 0.0 16.290000149 0.0 0.0 0.0 29.1751946751" Properties=species:S:1:pos:R:3:initial_magmoms:R:1 pbc="T T T"
Si       1.36736632       1.35752716       1.32925104       0.00000000
Si       1.37114560      -1.35676153      -1.33234362       0.00000000
Si      -1.34309422       1.38357487      -1.34293421       0.00000000
Si      -1.37490859      -1.33641532       1.36210231       0.00000000
Si      -0.07024248       2.69254154       2.61018797       0.00000000
Si      -0.00184077      -2.70360245      -2.67559875       0.00000000
Si      -2.69057045       0.02076975      -2.69228696       0.00000000
Si      -0.01969461      -2.70299972       2.69920149       0.00000000
Si       2.72093501       0.00794952      -2.68887347       0.00000000
Si       2.72057663       2.70935282      -0.03253034       0.00000000
