10
Lattice="16.290000149 0.0 0.0 0.0 16.290000149 0.0 0.0 0.0 29.1751946751" Properties=species:S:1:pos:R:3:initial_magmoms:R:1 pbc="T T T"
Si       1.38710980       1.34535853       1.27864959       0.00000000
Si       1.26162793      -1.39996261      -1.36427587       0.00000000
Si      -1.31709538       1.26258904      -1.47225034       0.00000000
Si      -1.41167512      -1.40468671       1.25659314       0.00000000
Si      -2.17494308      -0.67100140      -2.51610380       0.00000000
Si      -0.46742526      -2.33592086      -2.63990086       0.00000000
Si      -0.03771135       2.70723512       2.54660355       0.00000000
Si       2.58175325      -0.06009381      -2.71996022       0.00000000
Si       2.71671998      -0.05668920       2.59585128       0.00000000
Si       2.68434767       2.66049911      -0.18607356       0.00000000
