10
Lattice="16.290000149 0.0 0.0 0.0 16.290000149 0.0 0.0 0.0 29.1751946751" Properties=species:S:1:pos:R:3:initial_magmoms:R:1 pbc="T T T"
Si      -1.31878954       1.30241809       1.43201192       0.00000000
Si      -1.46140849      -1.35058762      -1.25189477       0.00000000
Si       1.33094188      -1.40253643       1.36864339       0.00000000
Si       1.34636851       1.35944547      -1.40230573       0.00000000
Si      -0.00136836      -2.54198936      -2.62188722       0.00000000
Si      -2.55939197       2.70966885       0.04878968       0.00000000
Si       2.64243350       2.64107981       0.10647196       0.00000000
Si      -2.73384973      -0.08387721       2.68840666       0.00000000
Si       2.67167405      -0.07962552       2.77663245       0.00000000
Si       2.71596656      -2.75950974       0.04731341       0.00000000
