10
Lattice="16.290000149 0.0 0.0 0.0 16.290000149 0.0 0.0 0.0 29.1751946751" Properties=species:S:1:pos:R:3:initial_magmoms:R:1 pbc="T T T"
Si      -1.38710980      -1.34535853      -1.27864959       0.00000000
Si       1.32961017      -1.40204773       1.31720169       0.00000000
Si      -1.42482115       1.36187659       1.26795396       0.00000000
Si       1.29723787       1.31514058      -1.46472314       0.00000000
Si       2.62824003       2.67758732      -0.09032640       0.00000000
Si       2.66900901      -0.02811654       2.65800611       0.00000000
Si      -0.06731028       2.70850574       2.62442546       0.00000000
Si      -0.12548187      -2.74532115      -2.64292545       0.00000000
Si      -2.74848141      -0.02661786       2.65030386       0.00000000
Si       2.68131773      -2.72469800      -0.08752558       0.00000000
