10
Lattice="16.290000149 0.0 0.0 0.0 16.290000149 0.0 0.0 0.0 29.1751946751" Properties=species:S:1:pos:R:3:initial_magmoms:R:1 pbc="T T T"
Si      -2.07381476       0.72179362      -0.83721139       0.00000000
Si      -0.78711652      -1.49057411       1.70642796       0.00000000
Si       1.04907601      -0.67219708      -2.06694584       0.00000000
Si       0.92154160       2.07916765       0.81880184       0.00000000
H       -1.40100517       2.27593456       1.73636171       0.00000000
Si      -1.31714425       1.30821245      -2.99115766       0.00000000
Si      -2.68824098       2.23846756       0.92176110       0.00000000
H        0.40415490      -3.58581022      -0.53766966       0.00000000
Si      -2.31860459      -2.81338728       0.51450456       0.00000000
Si      -3.36227232      -1.26586985      -0.95586690       0.00000000
