10
Lattice="16.290000149 0.0 0.0 0.0 16.290000149 0.0 0.0 0.0 29.1751946751" Properties=species:S:1:pos:R:3:initial_magmoms:R:1 pbc="T T T"
Si       1.38983023       1.35938422      -1.30246822       0.00000000
Si       1.38225538      -1.34586352       1.33502773       0.00000000
Si      -1.31720941       1.37041255       1.38943947       0.00000000
Si      -1.33103962      -1.34545627      -1.41388828       0.00000000
Si       0.01757691       2.72104579      -2.61468095       0.00000000
Si       0.01409085      -2.68944644       2.67810782       0.00000000
Si      -2.67758895      -2.69268815      -0.04434630       0.00000000
Si      -2.66354372       2.73173366       0.03503941       0.00000000
Si       2.70674642       0.00729792      -2.69473768       0.00000000
Si      -2.69354012       0.02269197       2.73952160       0.00000000
