10
Lattice="16.290000149 0.0 0.0 0.0 16.290000149 0.0 0.0 0.0 29.1751946751" Properties=species:S:1:pos:R:3:initial_magmoms:R:1 pbc="T T T"
Si       1.34708527      -1.34778574      -1.36615767       0.00000000
Si      -1.35360127      -1.37477827       1.34261328       0.00000000
Si      -1.35612622       1.32967126      -1.38760143       0.00000000
Si       1.36555813       1.33995025       1.37161343       0.00000000
Si      -2.72673426      -0.01557324       2.66311177       0.00000000
Si      -0.01834254       2.68325624       2.70725384       0.00000000
Si       2.68361462      -2.72279207      -0.01315801       0.00000000
Si      -0.01242927      -2.71218728      -2.69724675       0.00000000
Si      -2.73517248       2.67747329      -0.06695707       0.00000000
Si       2.70979265       2.71235018       0.00921936       0.00000000
