10
Lattice="16.290000149 0.0 0.0 0.0 16.290000149 0.0 0.0 0.0 29.1751946751" Properties=species:S:1:pos:R:3:initial_magmoms:R:1 pbc="T T T"
Si      -1.36008632      -1.35003376       1.35381656       0.00000000
Si      -1.38903691       1.34974054      -1.32925104       0.00000000
Si       1.31859406      -1.36239787      -1.39066483       0.00000000
Si       1.36938628       1.36145305       1.35232862       0.00000000
Si      -0.01270620       2.69746112      -2.67933318       0.00000000
Si       0.01047447      -2.69267186       2.71037559       0.00000000
Si       2.68529249      -2.71987616      -0.06263914       0.00000000
Si       2.68675859      -0.01881495      -2.73374492       0.00000000
Si      -2.69880050       0.01299942       2.72648029       0.00000000
Si      -2.70375239      -0.01656693      -2.72271669       0.00000000
