10
Lattice="16.290000149 0.0 0.0 0.0 16.290000149 0.0 0.0 0.0 29.1751946751" Properties=species:S:1:pos:R:3:initial_magmoms:R:1 pbc="T T T"
Si       1.33100216       1.36244674       1.37439674       0.00000000
Si      -1.29723787      -1.31514058       1.46472314       0.00000000
Si      -1.39235518       1.34946361      -1.36027303       0.00000000
Si       1.40493106      -1.34154667      -1.36873092       0.00000000
Si      -0.10259442      -2.72059292      -2.53388666       0.00000000
Si       0.07041076       2.51980238      -2.77545377       0.00000000
Si      -2.68434767      -2.66049911       0.18607356       0.00000000
Si       2.67340079       2.69053787      -0.01122370       0.00000000
Si       2.70088202       0.01203831       2.73547792       0.00000000
Si       2.76091068      -2.68750793       0.00717126       0.00000000
