10
Lattice="16.290000149 0.0 0.0 0.0 16.290000149 0.0 0.0 0.0 29.1751946751" Properties=species:S:1:pos:R:3:initial_magmoms:R:1 pbc="T T T"
Si       1.21842881      -1.28546998      -1.60755323       0.00000000
Si      -1.28675493       1.34653141      -1.50296015       0.00000000
Si      -1.43882208      -1.43415858       1.34132958       0.00000000
Si       1.31776197       1.70904908       1.13135570       0.00000000
H        2.82744751       0.22651245       0.50452664       0.00000000
H        0.20251109       2.70873380       1.39760853       0.00000000
H       -0.98279982       0.91377127       3.29484226       0.00000000
Si      -2.62913239      -2.57666524      -0.35051079       0.00000000
Si       3.44177599      -1.07702802       0.94726022       0.00000000
Si       2.59712319      -2.73813726      -0.45061088       0.00000000
