10
Lattice="16.290000149 0.0 0.0 0.0 16.290000149 0.0 0.0 0.0 29.1751946751" Properties=species:S:1:pos:R:3:initial_magmoms:R:1 pbc="T T T"
Si       1.34747623       1.02064996      -1.63354833       0.00000000
Si       1.43246116      -1.63114476       0.92301563       0.00000000
Si      -1.83604592      -1.18484502      -1.00473535       0.00000000
Si      -0.10246410       1.72929755       1.80915382       0.00000000
H       -2.24873678       1.48445884       0.49621171       0.00000000
Si       2.77483863       2.29205189      -0.22943373       0.00000000
Si       0.63350182       0.40057110       3.59843934       0.00000000
Si       2.62277147      -0.48863810       2.61485600       0.00000000
Si      -2.89641090       2.32244903      -0.58452503       0.00000000
Si       0.14199993      -3.06884055       2.20439018       0.00000000
