10
Lattice="16.290000149 0.0 0.0 0.0 16.290000149 0.0 0.0 0.0 29.1751946751" Properties=species:S:1:pos:R:3:initial_magmoms:R:1 pbc="T T T"
Si      -1.35050617      -1.34283358      -1.31238778       0.00000000
Si       1.39559689      -1.28257687       1.35976830       0.00000000
Si       1.38321649       1.33594291      -1.34060020       0.00000000
Si      -1.18278433       1.45226980       1.41117499       0.00000000
Si       2.27238986       0.60678622       2.42991444       0.00000000
Si       0.67070818       2.38335734       2.52041589       0.00000000
Si      -2.66082491       0.08491977      -2.60925436       0.00000000
Si       0.08710263      -2.67784796      -2.59332470       0.00000000
Si       0.02042766      -2.60262074       2.71580217       0.00000000
Si      -2.72227079      -2.59695182       0.11941407       0.00000000
