10
Lattice="16.290000149 0.0 0.0 0.0 16.290000149 0.0 0.0 0.0 29.1751946751" Properties=species:S:1:pos:R:3:initial_magmoms:R:1 pbc="T T T"
Si      -0.64767412       0.83799019      -1.08073674       0.00000000
Si       2.14627268       0.24483870       1.31294211       0.00000000
Si       2.24873678      -1.48445884      -0.49621171       0.00000000
Si       0.38428110       1.21617883       2.56773806       0.00000000
Si      -2.08169912       2.06337287       0.20355533       0.00000000
Si       0.41269086      -2.66930386      -1.50094707       0.00000000
Si      -2.08875269      -0.49159962      -2.29074876       0.00000000
Si      -1.38287440      -0.26630892       2.90252342       0.00000000
Si      -0.69877585      -2.31675242       2.13629528       0.00000000
Si       0.85182040       2.19960614      -2.24398092       0.00000000
