10
Lattice="16.290000149 0.0 0.0 0.0 16.290000149 0.0 0.0 0.0 29.1751946751" Properties=species:S:1:pos:R:3:initial_magmoms:R:1 pbc="T T T"
Si       1.37881819       1.34586352      -1.33070980       0.00000000
Si       1.37235106      -1.34674318       1.34010422       0.00000000
Si      -1.34669431       1.37837836       1.34911935       0.00000000
Si      -1.37784079      -1.34183989      -1.36259829       0.00000000
Si      -0.04852791       2.69105753      -2.60047263       0.00000000
Si      -0.00138465      -2.68944644       2.68225070       0.00000000
Si      -2.72359028       0.02256165       2.67994586       0.00000000
Si       2.72653877      -2.70150104      -0.02363191       0.00000000
Si       2.73082304       0.01624113       2.69739262       0.00000000
Si      -0.04171869      -2.78368410      -2.65141252       0.00000000
