10
Lattice="16.290000149 0.0 0.0 0.0 16.290000149 0.0 0.0 0.0 29.1751946751" Properties=species:S:1:pos:R:3:initial_magmoms:R:1 pbc="T T T"
Si       0.87535945      -0.86226229       0.88572974       0.00000000
H       -1.90962785      -0.44123094      -1.24277577       0.00000000
Si       0.87545719       0.97186141      -2.08296302       0.00000000
Si      -1.01027323      -0.37012509      -2.46609168       0.00000000
Si      -0.73003636       2.50740732      -1.00041743       0.00000000
Si      -1.46663758       2.16124482       1.26057264       0.00000000
Si       1.89047081      -2.35569692      -0.58977656       0.00000000
Si      -0.52841502      -2.09429129       2.30580316       0.00000000
Si       2.78669775       0.43701183       1.50508994       0.00000000
Si       2.80943859      -0.52227369      -1.76361134       0.00000000
