10
Lattice="16.290000149 0.0 0.0 0.0 16.290000149 0.0 0.0 0.0 29.1751946751" Properties=species:S:1:pos:R:3:initial_magmoms:R:1 pbc="T T T"
Si      -1.37080840       1.23874048      -1.44402626       0.00000000
Si       1.19873224      -1.40292739      -1.47410589       0.00000000
Si      -1.36718387      -1.42938235       1.29823781       0.00000000
Si       1.43635447       1.40892211       1.31638478       0.00000000
Si      -0.06744060       2.74414827       2.56260322       0.00000000
Si       2.55438605      -2.76091068      -0.17073324       0.00000000
Si       0.06532290      -2.64430685       2.68023761       0.00000000
Si      -2.77506669       2.55766034      -0.13125920       0.00000000
Si       2.73821871       2.64629423      -0.18234497       0.00000000
Si      -0.03901455       2.63668313      -2.78535584       0.00000000
