10
Lattice="16.290000149 0.0 0.0 0.0 16.290000149 0.0 0.0 0.0 29.1751946751" Properties=species:S:1:pos:R:3:initial_magmoms:R:1 pbc="T T T"
Si      -0.11696220       2.30520607       0.23631908       0.00000000
Si       1.60076944       0.07452675      -1.79179458       0.00000000
Si       0.28432566      -0.88677874       2.24071330       0.00000000
Si      -2.12687129      -0.96998806      -0.67972369       0.00000000
H        1.09574686      -2.74861173       0.05587050       0.00000000
H        2.53395839      -1.83791927       0.60483096       0.00000000
Si      -1.86543308       1.98081026       1.72711317       0.00000000
Si      -1.90956269      -0.16386111       2.70947115       0.00000000
Si       3.18057366      -1.01213029      -0.47220053       0.00000000
Si      -1.04405869      -2.38998737      -2.17819086       0.00000000
