10
Lattice="16.290000149 0.0 0.0 0.0 16.290000149 0.0 0.0 0.0 29.1751946751" Properties=species:S:1:pos:R:3:initial_magmoms:R:1 pbc="T T T"
Si       1.32926075      -1.35943309       1.36501983       0.00000000
Si      -1.34238072      -1.36117612      -1.35361233       0.00000000
Si      -1.32084534       1.33581259       1.40688624       0.00000000
Si       1.35063323       1.36568845      -1.36376530       0.00000000
Si       2.64063835       0.07006329       2.68750223       0.00000000
Si      -2.66043721       2.70156620       0.03115911       0.00000000
Si      -2.67891007       0.01383021      -2.70661199       0.00000000
Si      -2.69653585      -2.70886412       0.01995583       0.00000000
Si       2.70773686      -2.70477533       0.00761473       0.00000000
Si       0.02346737      -2.71210583      -2.70302344       0.00000000
