10
Lattice="16.290000149 0.0 0.0 0.0 16.290000149 0.0 0.0 0.0 29.1751946751" Properties=species:S:1:pos:R:3:initial_magmoms:R:1 pbc="T T T"
Si      -1.33185412      -1.35481651      -1.38310845       0.00000000
Si       1.33253830      -1.36602403       1.37140920       0.00000000
Si       1.35242839       1.35103397      -1.37222611       0.00000000
Si      -1.37060803       1.34002193       1.36534076       0.00000000
Si       0.00262269       2.72353164       2.67492772       0.00000000
Si      -2.69451263       2.70434202      -0.02698705       0.00000000
Si       2.70335973       0.00598820       2.70089365       0.00000000
Si       2.70253872      -2.70551816      -0.00840246       0.00000000
Si      -2.69223203      -2.71838726      -0.04180805       0.00000000
Si      -2.69071706      -0.00173651      -2.73660409       0.00000000
