10
Lattice="16.290000149 0.0 0.0 0.0 16.290000149 0.0 0.0 0.0 29.1751946751" Properties=species:S:1:pos:R:3:initial_magmoms:R:1 pbc="T T T"
Si       1.34799419       1.35426916      -1.35652985       0.00000000
Si      -1.34415307       1.36534636       1.35046141       0.00000000
Si       1.34312680      -1.35754345       1.36907519       0.00000000
Si      -1.37108044      -1.34879572      -1.35466264       0.00000000
Si      -2.68161095      -0.08241111       2.60668694       0.00000000
Si       2.67096544      -2.70619256      -0.02582005       0.00000000
Si       2.66270967       2.72057663       0.03693580       0.00000000
Si      -0.02127474       2.71010216      -2.69718840       0.00000000
Si       2.69166026       0.02080233       2.72000340       0.00000000
Si      -0.02681334      -2.68055210      -2.74013428       0.00000000
