10
Lattice="16.290000149 0.0 0.0 0.0 16.290000149 0.0 0.0 0.0 29.1751946751" Properties=species:S:1:pos:R:3:initial_magmoms:R:1 pbc="T T T"
Si      -1.34794376       1.33594291      -1.37531868       0.00000000
Si       1.31499397       1.46610001       1.27825280       0.00000000
Si      -1.41008522      -1.29296338       1.39011050       0.00000000
Si       1.41918481      -1.35442229      -1.33610722       0.00000000
H        2.21783465       0.56617525       2.08941074       0.00000000
H        0.19893348       0.21901905       3.50219037       0.00000000
Si      -2.64076287      -2.65459155      -0.05549122       0.00000000
Si      -0.03139083      -2.74563066       2.54705285       0.00000000
Si      -2.62011034       2.69635340       0.04740969       0.00000000
Si       0.07509690      -2.70044219      -2.72423380       0.00000000
