10
Lattice="16.290000149 0.0 0.0 0.0 16.290000149 0.0 0.0 0.0 29.1751946751" Properties=species:S:1:pos:R:3:initial_magmoms:R:1 pbc="T T T"
Si      -0.73005265       2.18955358       0.40069212       0.00000000
Si       1.90887851       0.54752808       1.27857373       0.00000000
Si      -1.62194644      -1.48652930       0.93696138       0.00000000
Si       0.73660123       0.34616250      -2.26099006       0.00000000
H        1.46663758      -2.16124482      -1.26057264       0.00000000
H        1.72836902       1.93643956       1.88775180       0.00000000
Si       2.54628992       1.67260672      -1.65764704       0.00000000
Si       1.20917413       3.21626342      -0.50172582       0.00000000
H       -0.44299026      -2.60247576      -2.50334840       0.00000000
Si      -0.40663098      -2.90144614       2.38679029       0.00000000
