10
Lattice="16.290000149 0.0 0.0 0.0 16.290000149 0.0 0.0 0.0 29.1751946751" Properties=species:S:1:pos:R:3:initial_magmoms:R:1 pbc="T T T"
H       -1.18573282       0.51264630      -0.79829168       0.00000000
Si       1.33374376      -1.06828192      -1.62158650       0.00000000
H       -1.75536155       0.63477244       1.53645328       0.00000000
Si       1.30033297       1.67164724       1.17412653       0.00000000
Si      -0.69351418      -1.86069269       1.41911064       0.00000000
H       -0.55356678       2.17170137      -1.90161001       0.00000000
H        1.52550964      -1.07794189       2.53637472       0.00000000
Si      -3.06856362       1.09276579       0.93051366       0.00000000
H       -1.99177832       1.26100891      -2.45057048       0.00000000
Si       2.56271024       0.02438613       2.31820262       0.00000000
