10
Lattice="16.290000149 0.0 0.0 0.0 16.290000149 0.0 0.0 0.0 29.1751946751" Properties=species:S:1:pos:R:3:initial_magmoms:R:1 pbc="T T T"
Si       1.26148132      -1.10730624       1.59599985       0.00000000
Si      -1.80968870      -1.32644421      -0.60334303       0.00000000
Si       1.21915990       1.31750263      -1.50062614       0.00000000
Si      -1.33711579       1.54365670       1.15592121       0.00000000
H        2.95134078      -0.70120631      -0.62607050       0.00000000
Si      -0.63741142      -1.12507863       2.93622077       0.00000000
Si      -0.20419515      -2.86199013      -1.68588862       0.00000000
Si       2.75185344       2.04486743       0.10062525       0.00000000
Si      -3.03712392       0.53916643      -1.55719684       0.00000000
Si      -2.54628992      -1.67260672       1.65764704       0.00000000
