10
Lattice="16.290000149 0.0 0.0 0.0 16.290000149 0.0 0.0 0.0 29.1751946751" Properties=species:S:1:pos:R:3:initial_magmoms:R:1 pbc="T T T"
Si      -1.37225332       1.36166156      -1.31221273       0.00000000
Si      -1.38983023      -1.35938422       1.30246822       0.00000000
Si       1.31691619      -1.35208630      -1.39226947       0.00000000
Si       1.35573526       1.37311181       1.33654484       0.00000000
Si      -0.00757485      -2.70524774       2.63749595       0.00000000
Si      -0.02941974       2.69154785      -2.66302424       0.00000000
Si       2.67167405       0.04249121      -2.69931235       0.00000000
Si       2.73434168       0.01257588       2.66031095       0.00000000
Si      -2.70703964       0.01102833       2.69190769       0.00000000
Si      -0.00594585       2.72925920       2.67527783       0.00000000
