10
Lattice="16.290000149 0.0 0.0 0.0 16.290000149 0.0 0.0 0.0 29.1751946751" Properties=species:S:1:pos:R:3:initial_magmoms:R:1 pbc="T T T"
Si       1.47003496      -1.29255694       1.27101736       0.00000000
Si      -1.39966939      -1.41671362      -1.25835532       0.00000000
Si      -1.23183352       1.42967069       1.41709756       0.00000000
Si       1.38318391       1.33658963      -1.38191227       0.00000000
Si       0.15832251      -2.63126345       2.63489936       0.00000000
Si      -2.58419675       2.73966363      -0.01000709       0.00000000
Si      -2.66075975      -0.02500678      -2.68919439       0.00000000
Si       0.03044601      -2.69870405      -2.67052227       0.00000000
Si       2.70071261       0.06907123       2.71661908       0.00000000
Si       2.76285407       2.69797752      -0.04881010       0.00000000
