10
Lattice="16.290000149 0.0 0.0 0.0 16.290000149 0.0 0.0 0.0 29.1751946751" Properties=species:S:1:pos:R:3:initial_magmoms:R:1 pbc="T T T"
Si       1.37767789       1.36415719       1.30585254       0.00000000
Si      -1.31771440       1.39142665      -1.34132958       0.00000000
Si       1.32737437      -1.35927019      -1.36650777       0.00000000
Si      -1.37037997      -1.35786925       1.33835371       0.00000000
Si      -2.62943408       0.03173292      -2.68741179       0.00000000
Si      -0.00760743       2.67902084       2.66375362       0.00000000
Si       2.73904950       0.04541652      -2.62310091       0.00000000
Si       2.70656723      -0.00224802       2.68271750       0.00000000
Si      -0.00737937      -2.72318303       2.67425669       0.00000000
Si      -0.09037692      -2.78964624      -2.60420413       0.00000000
