10
Lattice="16.290000149 0.0 0.0 0.0 16.290000149 0.0 0.0 0.0 29.1751946751" Properties=species:S:1:pos:R:3:initial_magmoms:R:1 pbc="T T T"
Si       1.76780711       1.00730845       1.15691317       0.00000000
Si       1.34181220      -1.30135924      -1.42205734       0.00000000
Si      -1.23147514       1.49110516      -1.35976830       0.00000000
Si      -1.30033297      -1.29663514       1.49549130       0.00000000
H       -3.15423273      -0.79658101      -1.58024524       0.00000000
Si      -2.30316167       0.46351566       2.76563340       0.00000000
Si      -2.50761746       0.02920797      -2.65727673       0.00000000
Si       3.42112809      -0.64614286       1.25036132       0.00000000
Si       2.76051972      -2.52394004      -0.04668031       0.00000000
Si       2.68960934       2.73877256      -0.12110623       0.00000000
