10
Lattice="16.290000149 0.0 0.0 0.0 16.290000149 0.0 0.0 0.0 29.1751946751" Properties=species:S:1:pos:R:3:initial_magmoms:R:1 pbc="T T T"
Si      -0.08434962       0.69059827       2.23019273       0.00000000
Si       0.73005265      -2.18955358      -0.40069212       0.00000000
Si       1.93922678       1.02670984      -0.90241795       0.00000000
Si      -2.20369493       0.38082762      -0.80812372       0.00000000
H        2.45842166      -0.25311402       1.48705967       0.00000000
Si       2.63893115      -1.64202550       0.87788161       0.00000000
Si      -2.15793632       2.67380804      -0.13759022       0.00000000
Si       1.46665387      -1.84339108      -2.66168219       0.00000000
Si       1.00973566       2.06819471      -2.73645821       0.00000000
Si       0.23921865       0.02221956      -3.61553600       0.00000000
