10
Lattice="16.290000149 0.0 0.0 0.0 16.290000149 0.0 0.0 0.0 29.1751946751" Properties=species:S:1:pos:R:3:initial_magmoms:R:1 pbc="T T T"
Si       2.30140235       0.06222780      -0.45034830       0.00000000
Si      -0.86203423       2.07604649      -0.79140633       0.00000000
Si      -0.14151123       0.42083586       2.35706398       0.00000000
Si      -0.92154160      -2.07916765      -0.81880184       0.00000000
H       -2.32254677       0.19676691       0.91755987       0.00000000
H       -1.01493217       2.87160123       0.48457081       0.00000000
Si      -3.60978258       0.15929991       0.10295926       0.00000000
Si      -2.99535636      -1.35737404      -1.65601322       0.00000000
Si       3.07191936       2.10820295       0.42872949       0.00000000
Si       2.06218370       0.04000824       3.16518770       0.00000000
