10
Lattice="16.290000149 0.0 0.0 0.0 16.290000149 0.0 0.0 0.0 29.1751946751" Properties=species:S:1:pos:R:3:initial_magmoms:R:1 pbc="T T T"
Si      -1.37313298       1.35920503       1.32049849       0.00000000
Si      -1.37411038      -1.36335898      -1.33170176       0.00000000
Si       1.35360127       1.37477827      -1.34261328       0.00000000
Si       1.35946567      -1.32515893       1.39142338       0.00000000
Si      -0.01417230       2.66716172       2.71040476       0.00000000
Si       2.68306076      -2.69570180       0.01779687       0.00000000
Si      -0.01407456      -2.71489142      -2.68411791       0.00000000
Si      -2.71402805       0.02655270       2.69348315       0.00000000
Si       2.70068654       0.02699253      -2.70877095       0.00000000
Si      -2.73004112       2.69395877      -0.05642483       0.00000000
