10
Lattice="16.290000149 0.0 0.0 0.0 16.290000149 0.0 0.0 0.0 29.1751946751" Properties=species:S:1:pos:R:3:initial_magmoms:R:1 pbc="T T T"
Si       1.29098251      -1.41582907       1.35559625       0.00000000
Si      -1.33374376       1.06828192       1.62158650       0.00000000
Si       1.31981581       1.32613633      -1.44032101       0.00000000
Si      -1.40941081      -1.36593280      -1.31545118       0.00000000
H       -2.51947658       1.58092822       0.82329482       0.00000000
Si       2.71795720       0.01874979       2.51773177       0.00000000
Si      -2.02725794      -0.79241077       3.04069714       0.00000000
Si      -0.34671636      -2.46909161       2.79025727       0.00000000
H       -1.88731055       3.23998329      -0.28002352       0.00000000
Si       2.60873438       2.73520505      -0.12183561       0.00000000
