10
Lattice="16.290000149 0.0 0.0 0.0 16.290000149 0.0 0.0 0.0 29.1751946751" Properties=species:S:1:pos:R:3:initial_magmoms:R:1 pbc="T T T"
H       -1.44021520       0.28725786       0.44188750       0.00000000
Si       0.44189883      -2.13570047       0.87864016       0.00000000
Si      -0.35945514       0.22092498      -2.35995232       0.00000000
Si       1.21502224       1.57486834       1.41517199       0.00000000
H        0.17902710       2.68035662      -0.99224837       0.00000000
H        1.54918064      -1.37777563      -2.12287469       0.00000000
H        0.36386973      -3.17273817      -0.22564096       0.00000000
Si      -0.79144966       2.94373335       1.48662204       0.00000000
Si       3.42287112       0.14659371       0.36498169       0.00000000
Si      -2.67188582       2.23070375       0.22076870       0.00000000
