10
Lattice="16.290000149 0.0 0.0 0.0 16.290000149 0.0 0.0 0.0 29.1751946751" Properties=species:S:1:pos:R:3:initial_magmoms:R:1 pbc="T T T"
Si       1.34283358       1.32988629      -1.35081151       0.00000000
Si      -1.35762490       1.39577934       1.28840577       0.00000000
Si       1.37225332      -1.36166156       1.31221273       0.00000000
Si      -1.30129408      -1.33170425      -1.42467727       0.00000000
Si      -2.68112063       0.01068787       2.64972036       0.00000000
Si      -0.01757691      -2.72104579       2.61468095       0.00000000
Si       0.03676653       2.73802648       2.61581878       0.00000000
Si      -2.54189651       0.07554650      -2.80789951       0.00000000
Si       2.72798858       0.01145024       2.64875757       0.00000000
Si       2.68916951      -2.71374787      -0.08005673       0.00000000
