10
Lattice="16.290000149 0.0 0.0 0.0 16.290000149 0.0 0.0 0.0 29.1751946751" Properties=species:S:1:pos:R:3:initial_magmoms:R:1 pbc="T T T"
H        0.64997101      -0.42420789       0.04396702       0.00000000
H       -1.14640876      -1.63362637       1.12727117       0.00000000
Si      -1.86528647      -1.71408269      -0.19745772       0.00000000
Si       0.85190185       1.74532691       1.75961434       0.00000000
Si      -0.08280207       0.82414369      -2.57100568       0.00000000
Si      -2.20693664       0.23781771      -1.56857517       0.00000000
Si       2.63283869       0.19948734       1.12461623       0.00000000
Si       1.40313916      -0.97625971      -2.45593871       0.00000000
Si      -0.25448238      -2.50214402      -1.72025700       0.00000000
Si      -0.36991332       3.06727671       0.24297102       0.00000000
