10
Lattice="16.290000149 0.0 0.0 0.0 16.290000149 0.0 0.0 0.0 29.1751946751" Properties=species:S:1:pos:R:3:initial_magmoms:R:1 pbc="T T T"
Si       1.36926893      -1.35583300       1.34065855       0.00000000
Si       1.39860435       1.33602436      -1.33266454       0.00000000
Si      -1.35040843       1.36117612       1.35941820       0.00000000
Si      -1.36212094      -1.34713414      -1.36426128       0.00000000
Si       0.08418672       2.76866634      -2.61436002       0.00000000
Si       2.69993558      -2.70490565      -0.04974371       0.00000000
Si       0.02127474      -2.71010216       2.69718840       0.00000000
Si      -2.71078634      -0.00239463       2.70071860       0.00000000
Si       2.68398441       0.01047447       2.73412419       0.00000000
Si      -2.70927137       2.71425611       0.00592256       0.00000000
