10
Lattice="16.290000149 0.0 0.0 0.0 16.290000149 0.0 0.0 0.0 29.1751946751" Properties=species:S:1:pos:R:3:initial_magmoms:R:1 pbc="T T T"
Si      -0.38084391      -0.64555642      -2.22387921       0.00000000
Si      -1.99241363      -0.59854348       1.17164664       0.00000000
Si       0.76505986       2.04449276       1.00832390       0.00000000
Si       1.49335318      -1.86618242       0.34913955       0.00000000
H       -2.25259751       2.08342586      -0.27039570       0.00000000
Si       1.79338241       0.70700230       2.62095361       0.00000000
H        2.75832057       1.97309369      -0.05193185       0.00000000
Si      -2.14799942      -2.12804417      -1.88909386       0.00000000
Si      -1.06292251      -1.64002835       3.00568691       0.00000000
H       -0.45621774       3.29284434      -1.35369986       0.00000000
