10
Lattice="16.290000149 0.0 0.0 0.0 16.290000149 0.0 0.0 0.0 29.1751946751" Properties=species:S:1:pos:R:3:initial_magmoms:R:1 pbc="T T T"
Si      -1.31537646      -1.38349179      -1.36230654       0.00000000
Si       1.34633430      -1.36132110       1.35440006       0.00000000
Si      -1.38010673       1.34751044       1.34065855       0.00000000
Si       1.32349572       1.38509147      -1.36131458       0.00000000
Si      -2.62979409       0.04915019      -2.64400202       0.00000000
Si       2.68112063      -0.01068787      -2.64972036       0.00000000
Si      -0.00990921       2.71676640       2.66483311       0.00000000
Si       2.66354372      -2.73173366      -0.03503941       0.00000000
Si       2.70330761       0.00171045       2.70357776       0.00000000
Si      -0.02999641      -2.70904169       2.70448220       0.00000000
