10
Lattice="16.290000149 0.0 0.0 0.0 16.290000149 0.0 0.0 0.0 29.1751946751" Properties=species:S:1:pos:R:3:initial_magmoms:R:1 pbc="T T T"
Si      -1.31171245      -1.33870651       1.36388200       0.00000000
Si      -1.47003496       1.29255694      -1.27101736       0.00000000
Si       1.23067765       1.36162817       1.44560172       0.00000000
Si       1.37915123      -1.39568893      -1.29809194       0.00000000
Si       2.60937204      -0.09103911       2.60254407       0.00000000
Si      -0.08685105       2.62914657      -2.65292963       0.00000000
Si       2.64076287       2.65459155       0.05549122       0.00000000
Si      -2.61688355       0.07043291       2.70264416       0.00000000
Si       2.71585977      -0.04585065      -2.66874258       0.00000000
Si      -2.58785477      -2.80060370       0.06637357       0.00000000
