10
Lattice="16.290000149 0.0 0.0 0.0 16.290000149 0.0 0.0 0.0 29.1751946751" Properties=species:S:1:pos:R:3:initial_magmoms:R:1 pbc="T T T"
Si      -1.53148807      -1.32281317      -1.19192340       0.00000000
Si      -1.40454010       1.19853191       1.46074365       0.00000000
Si       1.38023542      -1.31390254       1.44312183       0.00000000
Si       0.78711652       1.49057411      -1.70642796       0.00000000
H        1.19127142      -2.09523611      -2.24409762       0.00000000
Si      -1.28669824       2.21236773      -2.54363935       0.00000000
Si      -0.16596252      -2.67116906      -2.51560199       0.00000000
Si      -2.57515580       0.22470426      -2.66229486       0.00000000
Si      -2.67323301      -0.38745765       2.64805737       0.00000000
Si       0.04803921       2.61977086       2.75276714       0.00000000
