10
Lattice="16.290000149 0.0 0.0 0.0 16.290000149 0.0 0.0 0.0 29.1751946751" Properties=species:S:1:pos:R:3:initial_magmoms:R:1 pbc="T T T"
Si       1.25959168      -0.24742881      -1.93723293       0.00000000
Si      -0.33963021       2.11800953       0.93544427       0.00000000
Si       1.22181517      -1.32194980       1.51664332       0.00000000
Si      -2.06263982      -0.69486625      -0.89847930       0.00000000
H        2.57279375      -0.70542217      -1.33129331       0.00000000
H       -2.52855011       0.29722734       1.73181038       0.00000000
H        0.36991332      -3.06727671      -0.24297102       0.00000000
H       -1.23898483       2.04690368       2.15876018       0.00000000
H       -3.18580275      -0.63692272       0.11404584       0.00000000
Si       0.28711125      -2.24313302      -2.81397670       0.00000000
