10
Lattice="16.290000149 0.0 0.0 0.0 16.290000149 0.0 0.0 0.0 29.1751946751" Properties=species:S:1:pos:R:3:initial_magmoms:R:1 pbc="T T T"
Si       0.87413770      -0.77778235      -0.97118388       0.00000000
Si      -1.10012887       1.72401959       0.78341700       0.00000000
Si      -1.92793781      -0.27114705       1.87806563       0.00000000
Si      -1.32299236       2.23876730      -1.51142096       0.00000000
Si       2.28335841      -1.92197567       0.49209801       0.00000000
Si      -0.71900803      -1.87769945      -2.31916540       0.00000000
Si       2.02201256       0.79257367      -2.23096879       0.00000000
Si       0.82383418       2.54606186       1.88077892       0.00000000
Si      -0.50782446      -1.64362844       3.21450544       0.00000000
Si      -3.23999958      -1.71970274       0.51327920       0.00000000
