10
Lattice="10.86 0.0 0.0 0.0 10.86 0.0 0.0 0.0 10.86" Properties=species:S:1:pos:R:3:initial_magmoms:R:1 pbc="T T T"
Si      -1.43515986      -1.27435584       1.10097594       0.00000000
Si       1.27984014       1.44064416       1.10097594       0.00000000
Si      -1.50203574       1.10862138      -1.47796998       0.00000000
Si       1.27984014      -1.27435584      -1.61402406       0.00000000
Si      -0.09320052       0.22114218      -3.02003568       0.00000000
Si      -0.07765986      -2.63185584       2.45847594       0.00000000
Si       2.63734014       0.08314416       2.45847594       0.00000000
Si      -2.79265986       0.08314416       2.45847594       0.00000000
Si      -0.07765986       2.79814416       2.45847594       0.00000000
Si       2.63734014      -2.63185584      -0.25652406       0.00000000
