10
Lattice="10.86 0.0 0.0 0.0 10.86 0.0 0.0 0.0 10.86" Properties=species:S:1:pos:R:3:initial_magmoms:R:1 pbc="T T T"
Si      -2.33428098      -0.08847642       0.46234278       0.00000000
Si       1.75375968      -1.58397444      -0.84664560       0.00000000
Si      -0.96124032      -1.58397444       1.86835440       0.00000000
Si       1.75375968       1.13102556       1.86835440       0.00000000
Si      -2.19042942      -0.29710788      -2.00827464       0.00000000
Si       0.39625968      -2.94147444      -2.20414560       0.00000000
Si      -2.31874032      -2.94147444       0.51085440       0.00000000
Si       3.11125968      -0.22647444      -2.20414560       0.00000000
Si      -0.96124032      -1.58397444      -3.56164560       0.00000000
Si       3.11125968       2.48852556       0.51085440       0.00000000
