10
Lattice="10.86 0.0 0.0 0.0 10.86 0.0 0.0 0.0 10.86" Properties=species:S:1:pos:R:3:initial_magmoms:R:1 pbc="T T T"
Si       1.32296520       1.25001858       1.19286240       0.00000000
Si      -1.39203480      -1.46498142       1.19286240       0.00000000
Si      -1.39203480       1.25001858      -1.52213760       0.00000000
Si       1.00107480      -1.34004798      -1.94345130       0.00000000
Si      -0.03453480       2.60751858       2.55036240       0.00000000
Si       2.68046520       2.60751858      -0.16463760       0.00000000
Si      -2.74953480      -0.10748142       2.55036240       0.00000000
Si      -2.74953480       2.60751858      -0.16463760       0.00000000
Si       2.80727742      -0.09708840       2.61589164       0.00000000
Si      -0.01779954      -2.82825894       2.59997088       0.00000000
