10
Lattice="10.86 0.0 0.0 0.0 10.86 0.0 0.0 0.0 10.86" Properties=species:S:1:pos:R:3:initial_magmoms:R:1 pbc="T T T"
Si      -1.09148430       1.27510518      -1.35561036       0.00000000
Si       1.62351570       1.27510518       1.35938964       0.00000000
Si       1.62351570      -1.43989482      -1.35561036       0.00000000
Si      -2.44898430       2.63260518       0.00188964       0.00000000
Si      -2.32217208      -0.07200180       2.78241888       0.00000000
Si      -2.37526662      -0.11810250      -2.74878546       0.00000000
Si       0.26601570       2.63260518      -2.71311036       0.00000000
Si       0.26601570       2.63260518       2.71688964       0.00000000
Si       2.98101570       2.63260518       0.00188964       0.00000000
Si       0.79160712      -2.33845122      -3.13470642       0.00000000
