10
Lattice="16.28999089631971 0.0 0.0 0.0 16.28999089631971 0.0 0.0 0.0 34.33025523377368" Properties=species:S:1:pos:R:3:initial_magmoms:R:1 pbc="T T T"
Si       1.81491451       1.53966564       0.06481556       0.00000000
Si       0.01262149      -1.94618259       1.42144501       0.00000000
Si      -2.06089092       1.21997439       0.28652047       0.00000000
Si       0.09612892      -0.73300113      -2.39227084       0.00000000
Si      -1.31542794       0.98903106      -2.92669022       0.00000000
Si       2.82249988       0.38661057       1.90103895       0.00000000
Si      -1.90343178      -3.01016394       0.41429775       0.00000000
Si       1.24688710      -1.03480596       3.28539838       0.00000000
Si       1.77254422      -3.27479499       0.61715534       0.00000000
Si      -3.29109543       0.88169625      -1.69045704       0.00000000
