10
Lattice="16.28999089631971 0.0 0.0 0.0 16.28999089631971 0.0 0.0 0.0 34.33025523377368" Properties=species:S:1:pos:R:3:initial_magmoms:R:1 pbc="T T T"
Si       1.35860229      -1.35628519      -1.35999382       0.00000000
Si      -1.35734796       1.35941486      -1.36019980       0.00000000
Si      -1.35203742      -1.36035769       1.36909134       0.00000000
Si       1.36899531       1.35860688       1.37952775       0.00000000
Si      -2.54005083       0.15737413       2.72633874       0.00000000
Si       2.71252935      -2.71290010      -0.00164785       0.00000000
Si       2.71218726       2.71456041      -0.00020598       0.00000000
Si      -2.71513575      -2.71478974       0.00133888       0.00000000
Si       0.00001629      -2.71371460      -2.71665761       0.00000000
Si       2.71479366       0.00116739      -2.71655461       0.00000000
