10
Lattice="16.28999089631971 0.0 0.0 0.0 16.28999089631971 0.0 0.0 0.0 34.33025523377368" Properties=species:S:1:pos:R:3:initial_magmoms:R:1 pbc="T T T"
Si      -0.99268002       2.08109637      -0.27031658       0.00000000
Si       2.20744161       0.20360871      -0.69838077       0.00000000
Si      -0.43197822      -1.08548415       2.04059151       0.00000000
Si      -1.05205707      -1.14479604      -1.77326166       0.00000000
Si      -3.25669680       1.23097014       0.14566335       0.00000000
Si      -1.27322640      -3.25358541      -0.68269184       0.00000000
Si      -0.01011609       2.74199796      -2.32484618       0.00000000
Si      -2.13289857      -2.53949697       1.41111160       0.00000000
Si       3.29527152       1.30333032       1.04954515       0.00000000
Si       2.11874256       1.63683549      -2.65373021       0.00000000
