10
Lattice="16.28999089631971 0.0 0.0 0.0 16.28999089631971 0.0 0.0 0.0 34.33025523377368" Properties=species:S:1:pos:R:3:initial_magmoms:R:1 pbc="T T T"
Si       1.96691976      -1.33845156       0.24649137       0.00000000
Si      -1.40177079       0.79244334       1.82063744       0.00000000
Si       0.94885992       1.28863674      -1.85936199       0.00000000
Si      -1.93886838      -1.53518589      -1.35951320       0.00000000
Si       0.19837962       3.50218710      -1.23801836       0.00000000
Si      -2.72951330      -1.05585264       2.30874528       0.00000000
Si       1.21197600      -3.55208337       0.18249974       0.00000000
Si       1.88822277       1.07222409       3.11712026       0.00000000
Si       2.99268477      -0.81946845       2.29381162       0.00000000
Si      -0.32330763       0.76717755       3.86267083       0.00000000
