10
Lattice="16.28999089631971 0.0 0.0 0.0 16.28999089631971 0.0 0.0 0.0 34.33025523377368" Properties=species:S:1:pos:R:3:initial_magmoms:R:1 pbc="T T T"
Si      -1.17030618      -1.30132665      -1.51657905       0.00000000
Si       1.17907020      -1.45178109       1.47462604       0.00000000
Si      -1.51049025       1.23163803       1.47077075       0.00000000
Si       1.71400122       1.02714966      -1.60353763       0.00000000
Si       2.59693551       2.68807384       0.00822210       0.00000000
Si       2.63588490      -2.73316878       0.19633827       0.00000000
Si       2.53768878      -0.11153763       2.83648056       0.00000000
Si      -2.52275085       2.86814676       0.13731080       0.00000000
Si       0.40835772      -2.44289727      -2.95117256       0.00000000
Si      -0.16558785       2.59768878       2.84365559       0.00000000
