10
Lattice="16.28999089631971 0.0 0.0 0.0 16.28999089631971 0.0 0.0 0.0 34.33025523377368" Properties=species:S:1:pos:R:3:initial_magmoms:R:1 pbc="T T T"
Si       1.36664955      -1.51076718      -1.13234977       0.00000000
Si      -2.11510989       0.09075159      -1.02228691       0.00000000
Si       0.07144794      -1.00587492       2.16297894       0.00000000
Si       1.24618500       1.91896200      -0.72660026       0.00000000
Si       1.78305453      -2.48648931       1.54166963       0.00000000
Si      -1.59821190      -1.61170002      -2.56907176       0.00000000
Si      -0.54030672       3.40171757      -1.09012353       0.00000000
Si       0.61331850      -1.30665348      -3.31462233       0.00000000
Si       1.05878484       0.60973470       3.55318340       0.00000000
Si      -2.43698400       2.30659884      -1.88507537       0.00000000
