10
Lattice="16.28999089631971 0.0 0.0 0.0 16.28999089631971 0.0 0.0 0.0 34.33025523377368" Properties=species:S:1:pos:R:3:initial_magmoms:R:1 pbc="T T T"
Si      -1.35312885       1.36029645      -1.35879226       0.00000000
Si       1.36102950      -1.35547950      -1.35892958       0.00000000
Si      -1.34319195      -1.35595354       1.37973373       0.00000000
Si       1.36805049       1.37067318       1.36603595       0.00000000
Si      -2.52170829       0.17334189       2.80821645       0.00000000
Si      -2.71218726      -2.71456041       0.00020598       0.00000000
Si      -2.71244790       0.00156384      -2.71638296       0.00000000
Si       0.00260640      -2.71339303      -2.71634863       0.00000000
Si       0.00272043       2.71653669      -2.71652028       0.00000000
Si       2.71801908       2.71557558      -0.00367334       0.00000000
