10
Lattice="16.28999089631971 0.0 0.0 0.0 16.28999089631971 0.0 0.0 0.0 34.33025523377368" Properties=species:S:1:pos:R:3:initial_magmoms:R:1 pbc="T T T"
Si       2.19467025      -0.25110220       0.78925301       0.00000000
Si      -0.74513718       1.88904216       1.20897494       0.00000000
Si      -1.40618538      -1.68935675       0.89269013       0.00000000
Si       0.37571256       1.01479044      -2.11968846       0.00000000
Si       0.87524541       3.39733326       0.29575531       0.00000000
Si       2.07663291       2.46880326      -1.49020855       0.00000000
Si       1.85574051       0.34300061       3.21118521       0.00000000
Si      -3.59927371      -0.68423718       0.85032657       0.00000000
Si      -0.32128767       1.34920785       3.52438030       0.00000000
Si       2.83447629      -2.49128087       0.42981504       0.00000000
