10
Lattice="16.28999089631971 0.0 0.0 0.0 16.28999089631971 0.0 0.0 0.0 34.33025523377368" Properties=species:S:1:pos:R:3:initial_magmoms:R:1 pbc="T T T"
Si      -1.54393362       1.16264988      -1.34142114       0.00000000
Si       1.18951209      -1.56094038      -1.35916989       0.00000000
Si       0.88643664       1.66244337       1.50991413       0.00000000
Si      -1.27389429      -1.36418976       1.57054139       0.00000000
Si      -0.57956562       0.38204937       3.08598270       0.00000000
Si       2.56728771       2.58017310       0.02245200       0.00000000
Si      -0.17897823       2.50111773      -2.72489687       0.00000000
Si       2.53948068      -0.21603798      -2.72887918       0.00000000
Si       2.49048036      -2.87370261       0.13780172       0.00000000
Si      -2.70024669      -2.75827167       0.08301060       0.00000000
