10
Lattice="16.28999089631971 0.0 0.0 0.0 16.28999089631971 0.0 0.0 0.0 34.33025523377368" Properties=species:S:1:pos:R:3:initial_magmoms:R:1 pbc="T T T"
Si       0.45672273       1.09315674      -1.98219571       0.00000000
Si       1.13487543      -2.04437871      -0.08867510       0.00000000
Si       1.30323258       1.12808250       1.64126176       0.00000000
Si      -2.16098253      -1.00704780       0.41161999       0.00000000
Si      -1.20423825       2.85534378      -1.72121697       0.00000000
Si       3.39302781      -1.30152213      -0.32816309       0.00000000
Si       0.53602245      -0.78112179      -3.55544920       0.00000000
Si       0.64071828      -3.07040436      -2.09497067       0.00000000
Si       2.79521739       1.87458804      -1.78764605       0.00000000
Si       3.46243950       0.05229090       1.59330237       0.00000000
