10
Lattice="16.28999089631971 0.0 0.0 0.0 16.28999089631971 0.0 0.0 0.0 34.33025523377368" Properties=species:S:1:pos:R:3:initial_magmoms:R:1 pbc="T T T"
Si      -2.20744161      -0.20360871       0.69838077       0.00000000
Si       1.08782991       1.09972161       1.74792592       0.00000000
Si       1.28920689      -1.86157233      -0.64180448       0.00000000
Si      -0.08869905       1.43322678      -1.95534944       0.00000000
Si       3.11590233      -0.12849552       1.39017013       0.00000000
Si       3.29044968      -0.63086283      -0.92015435       0.00000000
Si      -3.25949868      -1.34840475      -1.07488089       0.00000000
Si       0.12406464      -2.80357416      -2.41650802       0.00000000
Si      -1.73457549      -1.41574761      -2.96853883       0.00000000
Si       0.24524595       3.29968611       1.70065313       0.00000000
