10
Lattice="16.28999089631971 0.0 0.0 0.0 16.28999089631971 0.0 0.0 0.0 34.33025523377368" Properties=species:S:1:pos:R:3:initial_magmoms:R:1 pbc="T T T"
Si       1.85934060       0.93017529       0.90896268       0.00000000
Si      -0.30012696      -1.97548830       1.27087243       0.00000000
Si       0.17454735      -0.50236731      -2.31032448       0.00000000
Si      -2.02807242       1.22821713       0.35775579       0.00000000
Si      -1.82669544      -1.73307681      -2.03197461       0.00000000
Si      -3.11590233       0.12849552      -1.39017013       0.00000000
Si      -1.29186216      -3.36985854      -0.36530845       0.00000000
Si       1.56524094       0.76628160       3.21671238       0.00000000
Si      -2.49603525       0.71944785       2.60027798       0.00000000
Si       1.98962802       3.13186653       0.13361343       0.00000000
