10
Lattice="16.28999089631971 0.0 0.0 0.0 16.28999089631971 0.0 0.0 0.0 34.33025523377368" Properties=species:S:1:pos:R:3:initial_magmoms:R:1 pbc="T T T"
Si      -1.35829278       1.35501849      -1.35601151       0.00000000
Si       1.35733167       1.35593073       1.35717874       0.00000000
Si      -1.35749457      -1.35938421       1.35714441       0.00000000
Si       1.35402480      -1.36039419      -1.36009681       0.00000000
Si      -2.70961344      -0.00750969      -2.71144284       0.00000000
Si      -0.00477297      -2.68972335      -2.73271044       0.00000000
Si       0.02534724       2.70148473      -2.72118920       0.00000000
Si       0.00003258       2.71326240       2.71373953       0.00000000
Si      -2.71298547       2.71435383      -0.00024031       0.00000000
Si      -2.71422351      -2.71422351      -0.00006866       0.00000000
