10
Lattice="16.28999089631971 0.0 0.0 0.0 16.28999089631971 0.0 0.0 0.0 34.33025523377368" Properties=species:S:1:pos:R:3:initial_magmoms:R:1 pbc="T T T"
Si      -1.34698752      -1.35268902       1.36191632       0.00000000
Si      -1.35392706       1.35661491      -1.35834597       0.00000000
Si       1.36080144      -1.35653346      -1.35844896       0.00000000
Si       1.35897696       1.35920502       1.36411345       0.00000000
Si       2.56846059      -0.07889247       2.77409215       0.00000000
Si      -2.62485657       0.04026888       2.78274338       0.00000000
Si      -2.71252935       2.71290010       0.00164785       0.00000000
Si      -2.71251306      -0.00081450      -2.71500975       0.00000000
Si       0.00226431       2.71406749      -2.71490676       0.00000000
Si       2.71596654      -2.71417464       0.00164785       0.00000000
