10
Lattice="16.28999089631971 0.0 0.0 0.0 16.28999089631971 0.0 0.0 0.0 34.33025523377368" Properties=species:S:1:pos:R:3:initial_magmoms:R:1 pbc="T T T"
Si      -2.24130852       0.31556988      -0.59834235       0.00000000
Si       1.28624211      -1.46160396      -1.31732129       0.00000000
Si       0.96793551       2.11693437      -0.38655889       0.00000000
Si       0.50810139      -0.21499542       2.33545424       0.00000000
Si       3.21693291       1.35060390      -0.60558604       0.00000000
Si       0.68251842      -3.50726958      -0.38374381       0.00000000
Si      -2.84144841       2.31225147       0.54190338       0.00000000
Si       3.49888023      -1.00040148      -0.75348086       0.00000000
Si      -2.33078949       0.29783007      -2.95600828       0.00000000
Si       0.69913422       3.36649140       1.60569560       0.00000000
