10
Lattice="16.28999089631971 0.0 0.0 0.0 16.28999089631971 0.0 0.0 0.0 34.33025523377368" Properties=species:S:1:pos:R:3:initial_magmoms:R:1 pbc="T T T"
Si      -2.20226139      -0.15760575       0.92671143       0.00000000
Si       0.02391372       1.11692385      -2.17774096       0.00000000
Si       1.18095984       0.95180841       2.08971813       0.00000000
Si       0.40672872      -2.56536549      -0.32960496       0.00000000
Si      -1.33437906      -1.49661117       2.60036247       0.00000000
Si      -0.34982775       3.33698111      -1.36225962       0.00000000
Si      -3.32959455      -1.38303729      -0.76810556       0.00000000
Si       3.32110746      -0.54920106      -1.56079160       0.00000000
Si      -0.33705639       0.21675474       3.72323983       0.00000000
Si       2.28828888       1.08866070      -2.85675946       0.00000000
