10
Lattice="16.28999089631971 0.0 0.0 0.0 16.28999089631971 0.0 0.0 0.0 34.33025523377368" Properties=species:S:1:pos:R:3:initial_magmoms:R:1 pbc="T T T"
Si       1.35856971      -1.35609200      -1.36184766       0.00000000
Si      -1.35739683       1.36057338      -1.36102373       0.00000000
Si       1.37186235       1.34340372       1.36861072       0.00000000
Si      -1.36477620      -1.34729703       1.38059199       0.00000000
Si       0.02026476       2.70847314       2.70879597       0.00000000
Si       2.71107954      -2.71230848      -0.00233446       0.00000000
Si      -2.71235016      -2.71563164      -0.00127022       0.00000000
Si      -2.71443528       2.71463076      -0.00611079       0.00000000
Si       2.71800805       2.71406061      -0.00209415       0.00000000
Si       2.71504469       0.00092853      -2.71799649       0.00000000
