10
Lattice="16.28999089631971 0.0 0.0 0.0 16.28999089631971 0.0 0.0 0.0 34.33025523377368" Properties=species:S:1:pos:R:3:initial_magmoms:R:1 pbc="T T T"
Si       1.36477620       1.34729703      -1.38059199       0.00000000
Si       1.25439516      -1.46788280       1.36648224       0.00000000
Si      -1.34757396      -1.36833461      -1.38186221       0.00000000
Si      -1.39865940       1.40426316       1.47997813       0.00000000
Si      -0.34015149      -2.60424062       2.71370520       0.00000000
Si      -2.69962767       2.71702539      -0.01699349       0.00000000
Si       2.73663855       2.69070075      -0.01198127       0.00000000
Si      -2.70835911      -2.72190329      -0.02035785       0.00000000
Si      -2.70664866      -0.00912729      -2.74195902       0.00000000
Si       0.00737937       2.70787041      -2.74161572       0.00000000
