10
Lattice="16.28999089631971 0.0 0.0 0.0 16.28999089631971 0.0 0.0 0.0 34.33025523377368" Properties=species:S:1:pos:R:3:initial_magmoms:R:1 pbc="T T T"
Si       1.35062019       1.33620354      -1.39260758       0.00000000
Si      -1.36190916      -1.37815029      -1.39518235       0.00000000
Si       1.54652373      -1.20751254       1.41409833       0.00000000
Si      -1.34353404       1.51177716       1.57119367       0.00000000
Si       0.22367799      -2.58421954       2.80430280       0.00000000
Si      -2.71843773       2.69158041      -0.01592925       0.00000000
Si       2.70283680       2.71340901      -0.01033341       0.00000000
Si      -2.71152263      -2.71704168      -0.02059816       0.00000000
Si       0.00039096       2.69482212      -2.75435225       0.00000000
Si       2.72504007      -2.73680797      -0.01438438       0.00000000
