10
Lattice="16.28999089631971 0.0 0.0 0.0 16.28999089631971 0.0 0.0 0.0 34.33025523377368" Properties=species:S:1:pos:R:3:initial_magmoms:R:1 pbc="T T T"
Si       1.94528664       0.04425341       1.34457953       0.00000000
Si      -0.51194583       1.87978455      -1.36723751       0.00000000
Si      -1.84793760      -1.04877368       1.09046684       0.00000000
Si       0.22115304      -1.80067121      -1.57205193       0.00000000
Si      -1.70282628      -2.78931131      -0.50571927       0.00000000
Si       2.34271623      -2.22779501       1.19723399       0.00000000
Si      -1.42307811       1.01454609      -3.45190909       0.00000000
Si       2.31855570      -2.86523900      -1.17701346       0.00000000
Si       1.47823605       3.12179931      -1.79729286       0.00000000
Si      -0.37444194      -1.10518595      -3.75411850       0.00000000
