10
Lattice="16.28999089631971 0.0 0.0 0.0 16.28999089631971 0.0 0.0 0.0 34.33025523377368" Properties=species:S:1:pos:R:3:initial_magmoms:R:1 pbc="T T T"
Si       1.35159759      -1.36506942      -1.34018525       0.00000000
Si      -1.39114971       1.35720135      -1.34859617       0.00000000
Si       0.84014046       1.95857928       1.15641529       0.00000000
Si      -1.16841654      -1.42908912       1.58053150       0.00000000
Si      -1.24771626       0.44518941       3.15378499       0.00000000
Si       1.09077840       1.22662071       3.34833465       0.00000000
Si       2.69774329       0.00558747      -2.71089012       0.00000000
Si      -0.02026476      -2.70847314      -2.70879597       0.00000000
Si      -0.02103039       2.72098386      -2.70714812       0.00000000
Si       2.71991509      -2.70457983       0.22397071       0.00000000
