10
Lattice="16.28999089631971 0.0 0.0 0.0 16.28999089631971 0.0 0.0 0.0 34.33025523377368" Properties=species:S:1:pos:R:3:initial_magmoms:R:1 pbc="T T T"
Si       0.25063794      -0.73195857       2.19191936       0.00000000
Si       1.94671529       0.89212185      -1.09705825       0.00000000
Si      -0.84014046      -1.95857928      -1.15641529       0.00000000
Si      -1.67386266       1.75550814       0.13289249       0.00000000
Si      -2.08785672      -1.51338987       1.99736970       0.00000000
Si       0.50774301       2.14925373      -2.49821407       0.00000000
Si      -2.23129017      -0.60137793      -2.50501146       0.00000000
Si      -3.54703347       0.84378942      -1.11999087       0.00000000
Si      -0.82456722       3.59600121      -1.07889753       0.00000000
Si       2.10921358      -2.23197435       2.36889193       0.00000000
