10
Lattice="16.28999089631971 0.0 0.0 0.0 16.28999089631971 0.0 0.0 0.0 34.33025523377368" Properties=species:S:1:pos:R:3:initial_magmoms:R:1 pbc="T T T"
Si       1.34534360       1.32657615      -1.37125415       0.00000000
Si       1.43897228      -1.25713188       1.40115582       0.00000000
Si      -1.36891386      -1.38684915      -1.36534934       0.00000000
Si      -1.33231023       1.44674748       1.41931654       0.00000000
Si      -0.50774301      -2.14925373       2.49821407       0.00000000
Si      -2.18160567      -0.39374559       2.63110656       0.00000000
Si       2.71978722       2.67701715       0.01805772       0.00000000
Si      -0.01052334       2.68646535      -2.72963445       0.00000000
Si      -2.73826755       2.69171073      -0.00065228       0.00000000
Si       2.70551229      -0.02666673      -2.72891351       0.00000000
