10
Lattice="16.28999089631971 0.0 0.0 0.0 16.28999089631971 0.0 0.0 0.0 34.33025523377368" Properties=species:S:1:pos:R:3:initial_magmoms:R:1 pbc="T T T"
Si       2.14241863       0.70187094       0.60428149       0.00000000
Si      -1.78362468       0.73730169       1.45491703       0.00000000
Si       0.60553188      -2.33189721      -0.24254339       0.00000000
Si      -0.47385981       0.93475278      -2.19452846       0.00000000
Si      -1.63044981      -1.06989462      -2.93183977       0.00000000
Si       1.99027962       3.07048581       0.40588683       0.00000000
Si       3.53963522      -0.39757374      -1.05043774       0.00000000
Si      -0.11067426      -2.82348054      -2.48654178       0.00000000
Si       2.35243468      -0.60673734      -3.00633646       0.00000000
Si      -2.03110236       3.14641350       1.07718102       0.00000000
