10
Lattice="16.28999089631971 0.0 0.0 0.0 16.28999089631971 0.0 0.0 0.0 34.33025523377368" Properties=species:S:1:pos:R:3:initial_magmoms:R:1 pbc="T T T"
Si      -1.09721295      -1.53251433       1.44286710       0.00000000
Si      -0.71620614      -0.49158333      -2.24399839       0.00000000
Si      -0.60553188       2.33189721       0.24254339       0.00000000
Si       2.15424566      -1.15217541       0.50946127       0.00000000
Si       1.53688675       3.03376815       0.84682488       0.00000000
Si       0.71350200      -3.10267485       1.50140022       0.00000000
Si       2.93410334       1.93432347      -0.80789435       0.00000000
Si      -1.68352263      -2.63805147      -1.90951852       0.00000000
Si       1.74690280       1.72515987      -2.76379307       0.00000000
Si      -2.23598169       1.26200259      -2.68929638       0.00000000
