10
Lattice="16.28999089631971 0.0 0.0 0.0 16.28999089631971 0.0 0.0 0.0 34.33025523377368" Properties=species:S:1:pos:R:3:initial_magmoms:R:1 pbc="T T T"
Si      -0.60372369      -2.04566562       0.93357748       0.00000000
Si       2.21263812       0.46120248       0.56384043       0.00000000
Si      -1.28624211       1.46160396       1.31732129       0.00000000
Si      -0.31965867       0.56382948      -2.28100642       0.00000000
Si       1.93069080       2.81220786       0.71173525       0.00000000
Si      -2.55757887      -0.11981295      -2.54617346       0.00000000
Si       0.76391955      -3.56402394      -0.24539280       0.00000000
Si      -0.31830660       3.57853833       0.93076240       0.00000000
Si       2.70868491      -0.27082125       2.72077724       0.00000000
Si      -0.77814072       1.24660854       3.65277553       0.00000000
