10
Lattice="16.28999089631971 0.0 0.0 0.0 16.28999089631971 0.0 0.0 0.0 34.33025523377368" Properties=species:S:1:pos:R:3:initial_magmoms:R:1 pbc="T T T"
Si      -1.35651717      -1.34921925      -1.37503048       0.00000000
Si       1.35252612       1.36617714      -1.37489316       0.00000000
Si      -1.46893446       1.26330579       1.37451553       0.00000000
Si       1.44303305      -1.32628293       1.44180287       0.00000000
Si       0.95625558       2.06311777       2.80759850       0.00000000
Si      -0.20256615      -2.34571113       2.78662270       0.00000000
Si       2.67850673       0.33989085       2.62990500       0.00000000
Si      -2.72867274      -2.70348840      -0.00621378       0.00000000
Si      -0.00092853      -2.70873378      -2.73519595       0.00000000
Si       2.71404173       0.00689067      -2.73313614       0.00000000
