10
Lattice="16.28999089631971 0.0 0.0 0.0 16.28999089631971 0.0 0.0 0.0 34.33025523377368" Properties=species:S:1:pos:R:3:initial_magmoms:R:1 pbc="T T T"
Si      -1.25439516       1.46788280      -1.36648224       0.00000000
Si       1.46893446      -1.26330579      -1.37451553       0.00000000
Si      -1.59454665      -1.13635782       1.34722296       0.00000000
Si       2.42519004       0.79981198       1.43308298       0.00000000
Si       0.80729982       0.06973749       3.03929352       0.00000000
Si      -0.05843223      -2.14413867       2.75424926       0.00000000
Si      -0.93307491       1.80528128       3.00273178       0.00000000
Si      -2.60196912       0.09954819      -2.74834445       0.00000000
Si       0.11241729      -2.61252504      -2.74954601       0.00000000
Si      -2.75327064      -2.69211798       0.02313860       0.00000000
