10
Lattice="16.28999089631971 0.0 0.0 0.0 16.28999089631971 0.0 0.0 0.0 34.33025523377368" Properties=species:S:1:pos:R:3:initial_magmoms:R:1 pbc="T T T"
Si       1.41155686      -1.72203219       0.53441938       0.00000000
Si      -1.97566749      -0.10733481       1.23623318       0.00000000
Si       1.21167547       1.98289424       0.32757948       0.00000000
Si      -0.49068738      -0.48536055      -2.27101631       0.00000000
Si      -0.74546298       0.23094333       3.21321069       0.00000000
Si       1.31542794      -0.98903106       2.92669022       0.00000000
Si      -3.00848607       1.53052695      -0.05973468       0.00000000
Si      -2.73968478       0.28096992      -2.05198916       0.00000000
Si       3.24013706      -1.08607059      -0.78420646       0.00000000
Si       3.40476380       0.97777467       0.36994304       0.00000000
