10
Lattice="16.28999089631971 0.0 0.0 0.0 16.28999089631971 0.0 0.0 0.0 34.33025523377368" Properties=species:S:1:pos:R:3:initial_magmoms:R:1 pbc="T T T"
Si      -1.23020451      -0.33827814      -1.97697751       0.00000000
Si      -1.35980775      -0.23108994       1.93995235       0.00000000
Si       2.06089092      -1.21997439      -0.28652047       0.00000000
Si       1.33429761       2.63777358      -0.65076468       0.00000000
Si       0.44782839       0.43113114       3.23638848       0.00000000
Si       0.74546298      -0.23094333      -3.21321069       0.00000000
Si       3.87580544       0.31969125      -0.22170491       0.00000000
Si       1.95713845       1.75195091      -2.88563122       0.00000000
Si      -3.37035213       1.16273133       1.67353222       0.00000000
Si       2.07351242      -3.16615698       1.13492454       0.00000000
