10
Lattice="16.28999089631971 0.0 0.0 0.0 16.28999089631971 0.0 0.0 0.0 34.33025523377368" Properties=species:S:1:pos:R:3:initial_magmoms:R:1 pbc="T T T"
Si      -2.09619883      -0.92735712       0.80648681       0.00000000
Si       1.84288770       0.15524370       1.63343446       0.00000000
Si       0.00262269      -0.35256447      -2.50082317       0.00000000
Si      -1.30795668       2.17214118       0.09142152       0.00000000
Si      -1.79080857       1.33045317      -2.58942961       0.00000000
Si       0.85804317      -0.61325334       3.60248168       0.00000000
Si       2.59783146       2.36887551       1.69742609       0.00000000
Si       0.63091170       3.70732707       1.45093472       0.00000000
Si      -3.96567737       0.50106411       0.77404470       0.00000000
Si      -0.29721105      -2.66401773       3.23329391       0.00000000
