10
Lattice="16.28999089631971 0.0 0.0 0.0 16.28999089631971 0.0 0.0 0.0 34.33025523377368" Properties=species:S:1:pos:R:3:initial_magmoms:R:1 pbc="T T T"
Si      -2.27600689      -0.62959221      -0.36901612       0.00000000
Si       0.50356300       1.33957557      -1.93248548       0.00000000
Si       1.96306555      -1.43417160      -0.07768941       0.00000000
Si       0.11660545       1.53715698       1.92906759       0.00000000
Si       1.46563411       3.05652528       0.57774419       0.00000000
Si      -2.74882414       1.69808589      -1.25786125       0.00000000
Si       2.66808046       1.99689336      -1.15566003       0.00000000
Si       2.02035748      -1.91348856       2.21787103       0.00000000
Si       1.25875111       0.04655682       3.35969596       0.00000000
Si       3.69671251      -0.10792125      -1.00182607       0.00000000
