10
Lattice="16.28999089631971 0.0 0.0 0.0 16.28999089631971 0.0 0.0 0.0 34.33025523377368" Properties=species:S:1:pos:R:3:initial_magmoms:R:1 pbc="T T T"
Si       1.34227808       1.36637262      -1.38594751       0.00000000
Si      -1.28634897       1.39189905       1.42930665       0.00000000
Si      -1.37444361      -1.35044100      -1.38931188       0.00000000
Si       1.47025232      -1.32910110       1.52996301       0.00000000
Si      -2.71978722      -2.67701715      -0.01805772       0.00000000
Si       2.70338903      -2.69690724      -0.01084837       0.00000000
Si       2.70537641       2.72080467      -0.01819505       0.00000000
Si      -2.72938203       2.71818198      -0.01249622       0.00000000
Si       2.70149939       0.00982287      -2.74707423       0.00000000
Si      -0.01427493      -2.70368388      -2.74697124       0.00000000
