10
Lattice="16.28999089631971 0.0 0.0 0.0 16.28999089631971 0.0 0.0 0.0 34.33025523377368" Properties=species:S:1:pos:R:3:initial_magmoms:R:1 pbc="T T T"
Si      -1.35761837       1.35870003      -1.35968485       0.00000000
Si       1.35922131      -1.35654975      -1.36112672       0.00000000
Si       1.36309833       1.35443205       1.36775246       0.00000000
Si      -1.34227808      -1.36637262       1.38594751       0.00000000
Si       2.71189404      -2.71409319      -0.00435994       0.00000000
Si       2.71513575       2.71478974      -0.00133888       0.00000000
Si       0.00029322      -2.71414206      -2.71789350       0.00000000
Si       2.71515204       0.00107514      -2.71799649       0.00000000
Si      -2.71547271       0.00117288      -2.71796216       0.00000000
Si      -2.71672170      -2.71681362      -0.00336437       0.00000000
