10
Lattice="16.28999089631971 0.0 0.0 0.0 16.28999089631971 0.0 0.0 0.0 34.395419527814205" Properties=species:S:1:pos:R:3:initial_magmoms:R:1 pbc="T T T"
Si      -0.71121163       0.57288672       2.17038658       0.00000000
Si      -1.43119542       1.49144724      -1.16535186       0.00000000
Si       2.34636273       0.35530119      -0.25156824       0.00000000
Si      -0.78748629      -2.28529152      -0.11178518       0.00000000
Si      -3.38326100       0.15996780      -1.35383886       0.00000000
Si      -2.79667439      -2.06467605      -1.30599481       0.00000000
Si      -0.47938212      -3.15794682       2.04701014       0.00000000
Si      -1.37500469      -1.41397200       3.26199462       0.00000000
Si      -0.40726629       2.33347964      -3.05661946       0.00000000
Si      -2.88644858       1.43267292       2.15862334       0.00000000
