10
Lattice="16.28999089631971 0.0 0.0 0.0 16.28999089631971 0.0 0.0 0.0 34.395419527814205" Properties=species:S:1:pos:R:3:initial_magmoms:R:1 pbc="T T T"
Si      -1.35485559       1.18651962      -1.43394584       0.00000000
Si      -1.25429742      -1.27999719       1.50744889       0.00000000
Si       1.38222279      -1.52306028      -1.36770023       0.00000000
Si       0.79596198       1.97168947       1.26650885       0.00000000
Si       0.55170972      -1.19502855       3.23017884       0.00000000
Si      -2.68097562       2.53059937      -0.07587634       0.00000000
Si       0.55102554       1.18548357       3.48408597       0.00000000
Si       0.01115865       2.54910481      -2.76938315       0.00000000
Si      -2.61690705      -2.81389617       0.09482822       0.00000000
Si       2.72986191       2.73707512       0.06184300       0.00000000
