10
Lattice="16.28999089631971 0.0 0.0 0.0 16.28999089631971 0.0 0.0 0.0 34.395419527814205" Properties=species:S:1:pos:R:3:initial_magmoms:R:1 pbc="T T T"
Si      -2.00989278       1.20259296       0.29184530       0.00000000
Si       0.59293971      -0.53072820       2.24196349       0.00000000
Si       1.91352114       1.40993208      -0.26921310       0.00000000
Si      -0.57749679      -1.43641310      -1.89494791       0.00000000
Si      -0.76958847       3.26176299       0.39203921       0.00000000
Si       2.12053446       1.02855060      -2.62316814       0.00000000
Si      -0.67282587      -2.48827211       2.43155115       0.00000000
Si       1.38486177      -1.18214249      -3.10835020       0.00000000
Si       1.49395590       3.25729953       1.31263313       0.00000000
Si       3.78292896       0.30739230       0.62929895       0.00000000
