10
Lattice="16.28999089631971 0.0 0.0 0.0 16.28999089631971 0.0 0.0 0.0 34.395419527814205" Properties=species:S:1:pos:R:3:initial_magmoms:R:1 pbc="T T T"
Si       1.33395552       1.87191648      -0.25954798       0.00000000
Si      -2.34747045       0.26148708       0.40277059       0.00000000
Si       0.47330595      -1.64110347      -1.68974472       0.00000000
Si      -0.65072034       2.18730717       2.67919831       0.00000000
Si       1.37432214       2.14692426      -2.61907508       0.00000000
Si       3.44841381       1.15362522       0.47940363       0.00000000
Si       2.81514006      -1.92837436      -1.44075614       0.00000000
Si      -2.37372993      -1.22378625       2.56872016       0.00000000
Si      -3.25389492      -0.76043349      -1.67117118       0.00000000
Si       2.58180210      -0.89337618       2.56789467       0.00000000
