10
Lattice="16.28999089631971 0.0 0.0 0.0 16.28999089631971 0.0 0.0 0.0 34.395419527814205" Properties=species:S:1:pos:R:3:initial_magmoms:R:1 pbc="T T T"
Si      -1.35718506      -1.35630540       1.35690006       0.00000000
Si       1.35891180      -1.35594702      -1.35734720       0.00000000
Si       1.35796698       1.35889551       1.35669369       0.00000000
Si      -1.35617508       1.35909099      -1.36088993       0.00000000
Si       2.71420722      -2.71358820       0.00065351       0.00000000
Si       0.00029322      -2.71386513       2.71404089       0.00000000
Si      -2.71461447       0.00127062       2.71435044       0.00000000
Si      -2.71552671      -2.71419093      -0.00044714       0.00000000
Si       2.71562445       0.00159642       2.71424726       0.00000000
Si      -2.71454931       2.71586880      -0.00092868       0.00000000
