10
Lattice="16.28999089631971 0.0 0.0 0.0 16.28999089631971 0.0 0.0 0.0 34.395419527814205" Properties=species:S:1:pos:R:3:initial_magmoms:R:1 pbc="T T T"
Si       1.74832425       1.57068180       0.48703941       0.00000000
Si      -2.11242204       0.76929525      -0.89400624       0.00000000
Si      -0.60157341      -0.71977365       2.25561848       0.00000000
Si       1.25529111      -1.11294909      -1.78660227       0.00000000
Si       1.66197096      -0.72423711       3.17621240       0.00000000
Si       2.08153620      -2.57160456       1.59436617       0.00000000
Si       0.94773591       3.57280425      -0.38227091       0.00000000
Si       2.28854952      -2.95298604      -0.75958887       0.00000000
Si      -1.66552218       1.85829804      -2.96017465       0.00000000
Si       2.49116454       1.49048613       2.69030803       0.00000000
