10
Lattice="16.28999089631971 0.0 0.0 0.0 16.28999089631971 0.0 0.0 0.0 34.395419527814205" Properties=species:S:1:pos:R:3:initial_magmoms:R:1 pbc="T T T"
Si      -1.69490934       1.37756385       0.78899697       0.00000000
Si       0.80058834      -2.00212245       0.86931032       0.00000000
Si       1.83712104       1.43081586       0.28180183       0.00000000
Si      -0.57252834      -0.53423055      -2.25603122       0.00000000
Si      -1.09434591       3.34490715      -0.44879168       0.00000000
Si       1.22693022       3.20611635      -1.07860656       0.00000000
Si       3.53681964       0.15951168      -0.66445109       0.00000000
Si       2.89919646      -2.15238141      -0.28231776       0.00000000
Si      -0.94773591      -3.57280425       0.38227091       0.00000000
Si       1.29815010      -1.51270569      -3.29140272       0.00000000
