10
Lattice="16.28999089631971 0.0 0.0 0.0 16.28999089631971 0.0 0.0 0.0 34.395419527814205" Properties=species:S:1:pos:R:3:initial_magmoms:R:1 pbc="T T T"
Si      -1.02392913      -0.84203240       1.89126760       0.00000000
Si       0.26604828      -1.31817281      -1.90530093       0.00000000
Si      -1.54972376       1.62737589      -0.69334325       0.00000000
Si       1.73677464       1.28137629       0.98481020       0.00000000
Si       2.07402651       2.47773018      -1.02254200       0.00000000
Si      -1.50445659       1.37732439       2.78155913       0.00000000
Si      -0.08836999       3.48979530      -0.86139937       0.00000000
Si      -3.07832849       1.74437067       1.04328245       0.00000000
Si       0.55767186       2.64287820       2.52046336       0.00000000
Si      -1.41041182      -2.90058341      -1.92676369       0.00000000
