10
Lattice="16.28999089631971 0.0 0.0 0.0 16.28999089631971 0.0 0.0 0.0 34.395419527814205" Properties=species:S:1:pos:R:3:initial_magmoms:R:1 pbc="T T T"
Si       0.97037901       0.19784205       2.09980714       0.00000000
Si      -2.06361720       1.12166424       0.05183393       0.00000000
Si       1.45784097       0.76696578      -1.70092324       0.00000000
Si      -0.38358063      -2.31454836       0.38440342       0.00000000
Si      -3.24457704      -0.50244876      -1.07582053       0.00000000
Si       3.22247151       0.27059319       1.45881374       0.00000000
Si       3.44970072      -0.29234034      -0.80371822       0.00000000
Si       0.69771699       3.10089924      -1.67044888       0.00000000
Si       0.57739905      -2.31409224       2.69863173       0.00000000
Si      -2.70611109      -2.37526119       0.26567037       0.00000000
