10
Lattice="16.28999089631971 0.0 0.0 0.0 16.28999089631971 0.0 0.0 0.0 34.395419527814205" Properties=species:S:1:pos:R:3:initial_magmoms:R:1 pbc="T T T"
Si       1.35637056      -1.35796698       1.36116509       0.00000000
Si      -1.36018242       1.35782037       1.36178421       0.00000000
Si      -1.35329175      -1.35861858      -1.38575783       0.00000000
Si       1.36094805       1.34597754      -1.39462498       0.00000000
Si       2.71430496      -2.71344159       0.00337075       0.00000000
Si       2.71454931       2.71386513      -0.00192614       0.00000000
Si      -2.71580853      -2.71456560       0.00027516       0.00000000
Si       2.71357191       0.00032580       2.71885625       0.00000000
Si      -0.00128691      -2.71453302       2.71906262       0.00000000
Si      -0.00140094       2.71608057       2.71895943       0.00000000
