10
Lattice="16.28999089631971 0.0 0.0 0.0 16.28999089631971 0.0 0.0 0.0 34.395419527814205" Properties=species:S:1:pos:R:3:initial_magmoms:R:1 pbc="T T T"
Si      -1.35723393       1.35765747      -1.35751918       0.00000000
Si       1.35713619       1.35725022       1.35803511       0.00000000
Si      -1.35780408      -1.35796698       1.35724401       0.00000000
Si       1.35773892      -1.35809730      -1.35762236       0.00000000
Si       2.71445157      -0.00174303      -2.71386891       0.00000000
Si       2.71463076       2.71499205      -0.00017198       0.00000000
Si      -2.71484253       2.71484166      -0.00020637       0.00000000
Si      -2.71458189      -2.71544526      -0.00020637       0.00000000
Si      -0.00185706       2.71552671       2.71476319       0.00000000
Si      -2.71601541      -0.00060273      -2.71469440       0.00000000
