10
Lattice="16.28999089631971 0.0 0.0 0.0 16.28999089631971 0.0 0.0 0.0 34.395419527814205" Properties=species:S:1:pos:R:3:initial_magmoms:R:1 pbc="T T T"
Si       1.35092970       1.36075257      -1.38740881       0.00000000
Si      -1.36454814      -1.35355239      -1.38506992       0.00000000
Si      -1.35856971       1.40684172       1.40639510       0.00000000
Si       1.44070389      -1.28819691       1.47759365       0.00000000
Si      -0.06649578      -2.65774608       2.66612804       0.00000000
Si       2.70275535       2.71221888      -0.05118041       0.00000000
Si      -2.74294930      -2.68584633      -0.01740409       0.00000000
Si      -2.71784152       2.73075853      -0.00650074       0.00000000
Si       2.72469798      -2.72411154       0.01117852       0.00000000
Si       2.70992295       0.00247608      -2.74413689       0.00000000
