10
Lattice="16.28999089631971 0.0 0.0 0.0 16.28999089631971 0.0 0.0 0.0 34.395419527814205" Properties=species:S:1:pos:R:3:initial_magmoms:R:1 pbc="T T T"
Si      -0.42787314      -1.97019405       1.20755506       0.00000000
Si      -1.09315674       0.34471269      -2.06056194       0.00000000
Si      -0.52958790       1.51738092       1.73968690       0.00000000
Si       2.33346105       0.00904095      -0.51472774       0.00000000
Si      -0.17138709      -1.38508983      -3.38650611       0.00000000
Si      -0.43425882       2.56923992      -2.58681216       0.00000000
Si       1.63574406      -3.09185829       1.15572114       0.00000000
Si       3.31444485       0.87713505       1.47387895       0.00000000
Si       0.15762204       0.40949802       3.81146175       0.00000000
Si       0.73617768       3.47492483       1.55009924       0.00000000
