10
Lattice="16.28999089631971 0.0 0.0 0.0 16.28999089631971 0.0 0.0 0.0 34.395419527814205" Properties=species:S:1:pos:R:3:initial_magmoms:R:1 pbc="T T T"
Si       1.26576558       1.95754391      -0.18958766       0.00000000
Si       0.52958790      -1.51738092      -1.73968690       0.00000000
Si      -2.33085465       0.46272464       0.04956383       0.00000000
Si       0.68720994      -1.10788290       2.07177486       0.00000000
Si       0.10171476      -3.48757497      -0.53213183       0.00000000
Si       0.67282587       2.48827211      -2.43155115       0.00000000
Si      -0.76479921      -3.14584335       1.61486585       0.00000000
Si      -2.46143529       2.83821389      -0.17101412       0.00000000
Si      -3.30754115      -0.42376806       1.90592005       0.00000000
Si       3.84403275      -0.64024587      -0.26580795       0.00000000
