10
Lattice="16.28999089631971 0.0 0.0 0.0 16.28999089631971 0.0 0.0 0.0 34.395419527814205" Properties=species:S:1:pos:R:3:initial_magmoms:R:1 pbc="T T T"
Si      -1.35684297       1.35726916      -1.35717522       0.00000000
Si       1.35782037       1.35770084       1.35734720       0.00000000
Si      -1.35749457      -1.35774183       1.35820709       0.00000000
Si       1.35827649      -1.35788844      -1.35741599       0.00000000
Si      -0.00060273       2.71465132      -2.71338737       0.00000000
Si      -2.71451673       2.71437439       0.00000000       0.00000000
Si      -2.71463076      -2.71499205       0.00017198       0.00000000
Si      -2.71520091       0.00147720      -2.71472879       0.00000000
Si       0.00135207       2.71458616       2.71572626       0.00000000
Si       2.71503801       2.71531921       0.00010319       0.00000000
