10
Lattice="16.28999089631971 0.0 0.0 0.0 16.28999089631971 0.0 0.0 0.0 34.395419527814205" Properties=species:S:1:pos:R:3:initial_magmoms:R:1 pbc="T T T"
Si      -1.35725022       1.35689184      -1.35745039       0.00000000
Si      -1.35721764      -1.35761837       1.35724401       0.00000000
Si       1.35795069      -1.35839866      -1.35765676       0.00000000
Si       1.35866745       1.35824391       1.35751918       0.00000000
Si      -0.00179190       2.71379997       2.71431605       0.00000000
Si       0.00004887       2.71327869      -2.71527912       0.00000000
Si      -2.71422351       2.71451673       0.00010319       0.00000000
Si      -2.71564074      -0.00066789      -2.71349056       0.00000000
Si      -2.71368594      -0.00073305       2.71562308       0.00000000
Si       2.71564074       2.71461447      -0.00003440       0.00000000
