10
Lattice="16.28999089631971 0.0 0.0 0.0 16.28999089631971 0.0 0.0 0.0 34.395419527814205" Properties=species:S:1:pos:R:3:initial_magmoms:R:1 pbc="T T T"
Si       1.36394541       1.36000323       1.33602203       0.00000000
Si      -1.36601424      -1.36258519       1.33543730       0.00000000
Si       1.35646830      -1.35688532      -1.35837906       0.00000000
Si      -1.35858600       1.35770634      -1.35896379       0.00000000
Si      -0.01115865      -2.54910481       2.76938315       0.00000000
Si      -2.69213427      -0.01850544       2.69350681       0.00000000
Si       2.71189404       2.71453302      -0.00130703       0.00000000
Si      -2.71471221       2.71373481       0.00209812       0.00000000
Si       2.71275741      -2.71600631       0.00467778       0.00000000
Si       2.71368594       0.00073305      -2.71562308       0.00000000
