10
Lattice="16.28999089631971 0.0 0.0 0.0 16.28999089631971 0.0 0.0 0.0 34.395419527814205" Properties=species:S:1:pos:R:3:initial_magmoms:R:1 pbc="T T T"
Si      -0.24493644      -0.78620590       2.21757712       0.00000000
Si       1.93389993       0.76538565      -1.20466585       0.00000000
Si      -1.85725548       1.63010772       0.05644291       0.00000000
Si      -0.79596198      -1.97168947      -1.26650885       0.00000000
Si      -2.48311728       0.08482203       2.17141844       0.00000000
Si       0.57914208       1.93741857      -2.69986996       0.00000000
Si      -2.15081757      -0.78516985      -2.70045469       0.00000000
Si      -0.63941508       3.29712858      -1.29595134       0.00000000
Si      -0.24425226      -3.16671803       1.96366999       0.00000000
Si      -3.47693760       0.55890990      -1.34238518       0.00000000
