10
Lattice="16.28999089631971 0.0 0.0 0.0 16.28999089631971 0.0 0.0 0.0 34.395419527814205" Properties=species:S:1:pos:R:3:initial_magmoms:R:1 pbc="T T T"
Si       0.71995284      -0.73709481      -2.13688542       0.00000000
Si      -2.24277462       0.92536322      -0.09486262       0.00000000
Si       1.61758071       1.91037065      -0.09857733       0.00000000
Si      -0.18948528      -1.80931142       1.76221591       0.00000000
Si       1.61381772       1.56630956       2.19830712       0.00000000
Si       0.53605503      -0.14288936       3.40750594       0.00000000
Si       2.68881111      -1.91568512      -1.53162889       0.00000000
Si      -0.69897132      -2.51157332      -2.75538420       0.00000000
Si      -3.22571322       0.20800375      -2.15583731       0.00000000
Si      -0.31640067      -3.80367983      -0.81290180       0.00000000
