10
Lattice="16.28999089631971 0.0 0.0 0.0 16.28999089631971 0.0 0.0 0.0 34.395419527814205" Properties=species:S:1:pos:R:3:initial_magmoms:R:1 pbc="T T T"
Si      -0.22722921       0.56293353       2.26253196       0.00000000
Si      -1.99185975       1.05930612      -0.89720502       0.00000000
Si      -0.47698749      -2.37289914       0.26343467       0.00000000
Si       2.18872440       0.73858860      -0.78713962       0.00000000
Si       1.31670441       2.84260500      -1.20511299       0.00000000
Si      -3.44970072       0.29234034       0.80371822       0.00000000
Si      -2.32536492       0.08501751      -3.00791551       0.00000000
Si      -2.47932171       0.49018239       2.90352536       0.00000000
Si       0.64912392      -1.05974595       3.64791144       0.00000000
Si      -0.59398227      -2.79404451       2.63214535       0.00000000
