10
Lattice="16.28999089631971 0.0 0.0 0.0 16.28999089631971 0.0 0.0 0.0 34.395419527814205" Properties=species:S:1:pos:R:3:initial_magmoms:R:1 pbc="T T T"
Si      -1.35671265      -1.35635427       1.35624655       0.00000000
Si       1.35884664      -1.35324288      -1.36123388       0.00000000
Si       1.35845568       1.35884664       1.35628094       0.00000000
Si      -1.35573525       1.35718506      -1.36453585       0.00000000
Si       0.00123804      -2.71376739       2.71441924       0.00000000
Si      -2.71445157       0.00174303       2.71386891       0.00000000
Si      -2.71391400      -2.71464705      -0.00144461       0.00000000
Si       2.71593396      -2.71303434      -0.00051593       0.00000000
Si       0.00017919       2.71673508       2.71369693       0.00000000
Si       2.71632492       0.00094482       2.71438484       0.00000000
