10
Lattice="16.28999089631971 0.0 0.0 0.0 16.28999089631971 0.0 0.0 0.0 34.395419527814205" Properties=species:S:1:pos:R:3:initial_magmoms:R:1 pbc="T T T"
Si       0.86537367      -1.30787523      -1.67684643       0.00000000
Si       1.71198126       1.37410452       0.69802103       0.00000000
Si      -1.39632993       1.37987444      -1.41354935       0.00000000
Si      -0.59096862      -1.43459514       1.87193736       0.00000000
Si      -0.77454063      -2.96751672      -1.62965589       0.00000000
Si      -3.35868849       1.12560383      -0.20014706       0.00000000
Si       1.58998545       3.02686838      -0.98453504       0.00000000
Si       2.85713568      -2.24872047      -0.83694421       0.00000000
Si      -0.66065724       3.59056754      -0.92836729       0.00000000
Si       1.00173726       2.86940924       2.32409980       0.00000000
