10
Lattice="16.28999089631971 0.0 0.0 0.0 16.28999089631971 0.0 0.0 0.0 34.395419527814205" Properties=species:S:1:pos:R:3:initial_magmoms:R:1 pbc="T T T"
Si      -1.35571896       1.33390665      -1.38144808       0.00000000
Si       1.35338364       1.36159965       1.36813361       0.00000000
Si      -1.36207206      -1.35839541       1.36768647       0.00000000
Si       1.47499664      -1.27995743      -1.40445519       0.00000000
Si       0.14220667       2.19271545      -3.06421538       0.00000000
Si       2.70786131       2.69614161       0.00125543       0.00000000
Si      -2.70366759      -2.72086054       0.00940027       0.00000000
Si       2.71551761      -2.71294379       0.00564085       0.00000000
Si       2.70706310       0.00234576       2.72572158       0.00000000
Si      -0.00714951      -2.71202987       2.72723498       0.00000000
