10
Lattice="16.28999089631971 0.0 0.0 0.0 16.28999089631971 0.0 0.0 0.0 34.395419527814205" Properties=species:S:1:pos:R:3:initial_magmoms:R:1 pbc="T T T"
Si       1.79649771      -1.56070973      -0.11065013       0.00000000
Si      -0.77608818      -0.30413919       2.28722789       0.00000000
Si       0.80824384       1.94831006      -1.29770551       0.00000000
Si      -1.88033841      -0.82285418      -1.39325604       0.00000000
Si       2.75213753      -0.39815366       2.17176240       0.00000000
Si      -0.58394763      -2.12864429      -2.88460787       0.00000000
Si       2.13511957       0.60644738      -2.87683450       0.00000000
Si       0.74484396      -3.38258333      -1.32532505       0.00000000
Si       3.49439138      -0.71746943      -1.46393866       0.00000000
Si      -2.86596486      -2.67535298      -0.07339987       0.00000000
