10
Lattice="16.28999089631971 0.0 0.0 0.0 16.28999089631971 0.0 0.0 0.0 34.395419527814205" Properties=species:S:1:pos:R:3:initial_magmoms:R:1 pbc="T T T"
Si       1.10038950       0.27124153      -2.03259845       0.00000000
Si       1.46163654       0.79916785       1.68183377       0.00000000
Si      -1.85132592       1.44260656      -0.52700691       0.00000000
Si      -0.23082930      -2.38981860      -0.20695735       0.00000000
Si      -0.06696819       0.91616263       3.41845947       0.00000000
Si       1.02899043       2.65397983      -2.21241781       0.00000000
Si       3.20558597      -0.76299265      -1.50263353       0.00000000
Si      -3.34195866      -0.02311225      -1.67093041       0.00000000
Si      -2.34750303      -2.91662091       0.58169566       0.00000000
Si      -1.98534375      -0.44777789       3.26371439       0.00000000
