10
Lattice="16.28999089631971 0.0 0.0 0.0 16.28999089631971 0.0 0.0 0.0 34.395419527814205" Properties=species:S:1:pos:R:3:initial_magmoms:R:1 pbc="T T T"
Si      -0.47553768      -0.14898182       2.27608376       0.00000000
Si       0.03510495      -2.31921937      -0.38739583       0.00000000
Si       1.91837556       1.36394052       0.15474508       0.00000000
Si      -1.83342321       0.86931096      -1.24525246       0.00000000
Si       0.36955494       3.10641666      -0.09070077       0.00000000
Si       2.02070934      -2.55394198       0.81424322       0.00000000
Si      -2.93208597       1.76718318       0.60587565       0.00000000
Si       0.90396468      -2.01114289       2.78293495       0.00000000
Si      -1.90799883      -0.74519094      -2.95467137       0.00000000
Si      -2.81009016       0.11441933       2.28843173       0.00000000
