10
Lattice="16.28999089631971 0.0 0.0 0.0 16.28999089631971 0.0 0.0 0.0 34.395419527814205" Properties=species:S:1:pos:R:3:initial_magmoms:R:1 pbc="T T T"
Si       1.52860473      -0.11699478      -1.73662570       0.00000000
Si      -1.54882062       1.74247614      -0.24544585       0.00000000
Si      -1.91837556      -1.36394052      -0.15474508       0.00000000
Si       1.57387190      -0.36704628       1.73827668       0.00000000
Si       2.05439936      -2.58640307       0.84798515       0.00000000
Si      -2.39391324      -1.51292235       2.12133868       0.00000000
Si       0.06696819      -0.91616263      -3.41845947       0.00000000
Si       3.07832849      -1.74437067      -1.04328245       0.00000000
Si      -0.34811730       3.64897629      -0.59435318       0.00000000
Si       0.51088698      -0.33135489       3.83189264       0.00000000
