10
Lattice="16.28999089631971 0.0 0.0 0.0 16.28999089631971 0.0 0.0 0.0 34.395419527814205" Properties=species:S:1:pos:R:3:initial_magmoms:R:1 pbc="T T T"
Si       1.35597375      -1.35804843      -1.36051158       0.00000000
Si      -1.35962856       1.35897696      -1.36092433       0.00000000
Si       1.35882450       1.34804637       1.37543920       0.00000000
Si      -1.35969372      -1.36091547       1.39397834       0.00000000
Si       2.71313927       2.71425609      -0.00072230       0.00000000
Si       2.71175462      -2.71585251      -0.00357713       0.00000000
Si       2.71286234       0.00004887      -2.71796197       0.00000000
Si      -2.71811682       2.71336014      -0.00230449       0.00000000
Si      -0.00160760      -2.71497285      -2.71820273       0.00000000
Si      -0.00233391       2.71515204      -2.71813394       0.00000000
