10
Lattice="16.28999089631971 0.0 0.0 0.0 16.28999089631971 0.0 0.0 0.0 34.395419527814205" Properties=species:S:1:pos:R:3:initial_magmoms:R:1 pbc="T T T"
Si      -1.35882450      -1.34804637      -1.37543920       0.00000000
Si      -1.35801000       1.31735601       1.41774559       0.00000000
Si       1.35431476       1.36620972      -1.37616150       0.00000000
Si       1.34232532      -1.33257087       1.52887725       0.00000000
Si       2.70115567      -2.69724933       0.00048154       0.00000000
Si      -2.71851822      -2.70896184       0.01853914       0.00000000
Si      -2.71654713       2.72254770       0.00306119       0.00000000
Si      -0.00285075      -2.70609480      -2.73595078       0.00000000
Si       2.71309624       2.73320136      -0.01221038       0.00000000
Si       2.71246093       0.00972513      -2.73588199       0.00000000
