10
Lattice="16.28999089631971 0.0 0.0 0.0 16.28999089631971 0.0 0.0 0.0 34.395419527814205" Properties=species:S:1:pos:R:3:initial_magmoms:R:1 pbc="T T T"
Si       1.33755561       1.08264969      -1.61545057       0.00000000
Si      -0.69349788       1.91633931       1.33048436       0.00000000
Si      -1.31577588      -1.47284406      -1.51955609       0.00000000
Si       1.20461292      -1.68002028       1.53709776       0.00000000
Si      -0.97365330      -2.30915637       0.75243462       0.00000000
Si       1.19632131       0.56192355       2.33355854       0.00000000
Si      -2.62604574       2.46107691      -0.09510339       0.00000000
Si       2.77993641       2.50805727      -0.31568134       0.00000000
Si       1.01548602       3.55776858       1.04961121       0.00000000
Si       2.66086954      -2.80899873       0.01375818       0.00000000
