10
Lattice="16.28999089631971 0.0 0.0 0.0 16.28999089631971 0.0 0.0 0.0 34.395419527814205" Properties=species:S:1:pos:R:3:initial_magmoms:R:1 pbc="T T T"
Si      -1.89091062       0.21610314      -1.36759704       0.00000000
Si       0.76181814       2.12639886       0.69396237       0.00000000
Si       1.52588497      -1.46105010      -1.08410983       0.00000000
Si      -0.96469380      -0.66626100       2.10950665       0.00000000
Si       2.37338199      -2.56981266       0.79917802       0.00000000
Si      -1.75000212      -1.92228516      -2.50581090       0.00000000
Si      -3.56091255       0.75698001       0.28314325       0.00000000
Si       0.86229486       1.80590940       3.07120312       0.00000000
Si      -2.62891278       0.93110382       2.53807382       0.00000000
Si       0.63386019      -0.46364598       3.75433093       0.00000000
