10
Lattice="16.28999089631971 0.0 0.0 0.0 16.28999089631971 0.0 0.0 0.0 34.395419527814205" Properties=species:S:1:pos:R:3:initial_magmoms:R:1 pbc="T T T"
Si      -1.20070332      -1.90650015       0.34890733       0.00000000
Si       1.59855399       0.20261502       1.64482428       0.00000000
Si      -1.66421898       1.59736482       0.42856717       0.00000000
Si       0.96469380       0.66626100      -2.10950665       0.00000000
Si       1.82698866       2.47217040       0.96169647       0.00000000
Si      -2.59621875       1.42324101      -1.82636340       0.00000000
Si      -0.29486529       3.06219420       1.78027351       0.00000000
Si       1.72651194       2.79265986      -1.41554428       0.00000000
Si      -2.57494401      -2.15358687      -1.56454532       0.00000000
Si      -0.92621682       0.88236414      -3.47710369       0.00000000
