10
Lattice="16.28999089631971 0.0 0.0 0.0 16.28999089631971 0.0 0.0 0.0 34.395419527814205" Properties=species:S:1:pos:R:3:initial_magmoms:R:1 pbc="T T T"
Si      -1.35620766      -1.35684297       1.35672808       0.00000000
Si       1.35705474       1.35654975       1.35707204       0.00000000
Si       1.35754344      -1.35739683      -1.35727841       0.00000000
Si      -1.35711990       1.35783666      -1.35731280       0.00000000
Si       2.71294377      -0.00151497      -2.71503835       0.00000000
Si      -2.71407690       2.71448415       0.00065351       0.00000000
Si      -2.71446786       0.00050499      -2.71424726       0.00000000
Si      -0.00032580       2.71500543      -2.71441924       0.00000000
Si       0.00052128      -2.71507059      -2.71438484       0.00000000
Si      -2.71463076      -2.71484253      -0.00017198       0.00000000
