10
Lattice="16.28999089631971 0.0 0.0 0.0 16.28999089631971 0.0 0.0 0.0 34.395419527814205" Properties=species:S:1:pos:R:3:initial_magmoms:R:1 pbc="T T T"
Si       1.35620766       1.35684297      -1.35672808       0.00000000
Si      -1.35816246       1.35350352       1.35923895       0.00000000
Si      -1.35842310      -1.35799956      -1.35690006       0.00000000
Si       1.35557235      -1.36005210       1.35920455       0.00000000
Si      -0.00050499       2.70521514       2.70977585       0.00000000
Si       2.71326240       2.71339272       0.00034395       0.00000000
Si       2.71375110      -0.00055386      -2.71400649       0.00000000
Si       2.71406061      -2.71443528       0.00058472       0.00000000
Si      -0.00091224       2.71467963      -2.71404089       0.00000000
Si      -2.71409319       2.71516833      -0.00099747       0.00000000
