10
Lattice="16.28999089631971 0.0 0.0 0.0 16.28999089631971 0.0 0.0 0.0 34.395419527814205" Properties=species:S:1:pos:R:3:initial_magmoms:R:1 pbc="T T T"
Si       1.35472973       1.36045935      -1.37764051       0.00000000
Si      -1.36039419      -1.35723393      -1.38080489       0.00000000
Si      -1.35044100       1.41815853       1.39514779       0.00000000
Si       1.35853713      -1.40519169       1.41468440       0.00000000
Si      -2.70446580      -2.70360243      -0.00055033       0.00000000
Si      -2.71647153       2.70803331      -0.03023359       0.00000000
Si       2.68964257       2.74387131      -0.01183203       0.00000000
Si       2.71654713      -2.72254770      -0.00306119       0.00000000
Si      -0.00190593      -2.71161711      -2.73942472       0.00000000
Si       2.71325818       0.00286704      -2.73925274       0.00000000
