10
Lattice="16.28999089631971 0.0 0.0 0.0 16.28999089631971 0.0 0.0 0.0 34.395419527814205" Properties=species:S:1:pos:R:3:initial_magmoms:R:1 pbc="T T T"
Si       1.70898390       1.64142927      -0.28087315       0.00000000
Si       0.69349788      -1.91633931      -1.33048436       0.00000000
Si      -1.93254786       0.54473760      -1.42558775       0.00000000
Si      -0.90143973      -0.07737750       2.32430617       0.00000000
Si       1.88981919      -1.35441576       1.00307418       0.00000000
Si      -1.35964485       2.39761107       0.00601920       0.00000000
Si      -2.78720271       0.41366826       0.97703683       0.00000000
Si       0.43067502       1.85601744       2.94342407       0.00000000
Si      -0.67792464       1.98966060      -2.96547154       0.00000000
Si       2.03105349      -0.83368962      -2.94593493       0.00000000
