10
Lattice="16.28999089631971 0.0 0.0 0.0 16.28999089631971 0.0 0.0 0.0 34.395419527814205" Properties=species:S:1:pos:R:3:initial_magmoms:R:1 pbc="T T T"
Si      -0.60698169       2.21993604       0.08241147       0.00000000
Si       2.12185395      -0.59002380      -0.81857705       0.00000000
Si      -0.15283278      -0.69631605       2.27690925       0.00000000
Si      -1.36935369      -1.46482938      -1.35170635       0.00000000
Si       1.89341928      -2.85957918      -0.13544924       0.00000000
Si       0.29486529      -3.06219420      -1.78027351       0.00000000
Si       1.56092409      -2.38497003       2.21210825       0.00000000
Si      -2.36071422      -1.54670292       2.35116901       0.00000000
Si       1.33190298       3.43629405      -0.47857813       0.00000000
Si      -2.44483578       2.47190976      -1.33433665       0.00000000
