10
Lattice="16.28999089631971 0.0 0.0 0.0 16.28999089631971 0.0 0.0 0.0 34.395419527814205" Properties=species:S:1:pos:R:3:initial_magmoms:R:1 pbc="T T T"
Si       0.60698169      -2.21993604      -0.08241147       0.00000000
Si      -1.83785409       0.25197372      -1.41674812       0.00000000
Si       1.93888467       1.21635801      -0.56098961       0.00000000
Si      -0.84074319       0.64601253       2.11886221       0.00000000
Si      -2.33334702       2.48653818      -0.66961040       0.00000000
Si      -1.71276318       2.75002893       1.70088884       0.00000000
Si       0.45414891      -2.91625209       2.19449778       0.00000000
Si       1.35229806       3.44100186      -0.60883366       0.00000000
Si      -1.16209602      -0.05934447      -3.71315959       0.00000000
Si       1.00074357       0.93260250       3.64581332       0.00000000
