10
Lattice="16.28999089631971 0.0 0.0 0.0 16.28999089631971 0.0 0.0 0.0 34.395419527814205" Properties=species:S:1:pos:R:3:initial_magmoms:R:1 pbc="T T T"
Si       0.26814969       1.99788705       1.15764728       0.00000000
Si      -2.22437411      -0.27438876      -0.63638441       0.00000000
Si       1.11397536       0.66815064      -2.01663897       0.00000000
Si       0.44380476      -1.86386922       1.45337926       0.00000000
Si      -2.21608250      -2.51633259      -1.43284519       0.00000000
Si      -1.51272524       3.38832000       0.43761317       0.00000000
Si      -0.64075901       1.67174496      -3.28562429       0.00000000
Si       2.05721523      -1.20800124       3.02432214       0.00000000
Si      -1.51745260      -2.51115237       2.52682651       0.00000000
Si      -0.08394237       1.69942167       3.51958206       0.00000000
