10
Lattice="16.28999089631971 0.0 0.0 0.0 16.28999089631971 0.0 0.0 0.0 34.395419527814205" Properties=species:S:1:pos:R:3:initial_magmoms:R:1 pbc="T T T"
Si      -0.62682291       0.84175317       2.16632792       0.00000000
Si      -1.31048163      -1.97856711      -0.41136945       0.00000000
Si       2.09133042      -1.13911083       0.63315124       0.00000000
Si      -0.44118207       2.12450175      -1.35999565       0.00000000
Si       1.20495487      -0.49721967       2.82169861       0.00000000
Si       0.70439589       3.50281331       0.34068682       0.00000000
Si       1.68422703      -3.38859693      -0.08543827       0.00000000
Si       2.80959236       2.46857913       0.87065174       0.00000000
Si      -2.88849393       2.24650733      -1.29017291       0.00000000
Si      -0.48656601      -3.84087249       0.78091404       0.00000000
