10
Lattice="16.28999089631971 0.0 0.0 0.0 16.28999089631971 0.0 0.0 0.0 34.395419527814205" Properties=species:S:1:pos:R:3:initial_magmoms:R:1 pbc="T T T"
Si      -1.92977042       0.90710865      -1.00558505       0.00000000
Si       1.45679841      -1.44521622      -1.20112312       0.00000000
Si       1.01278188       2.11023918       0.52009343       0.00000000
Si      -1.28376603      -1.17059940       1.76331656       0.00000000
Si       0.21649410      -3.50438625      -1.30131703       0.00000000
Si      -2.72335568       2.56795560       0.51104743       0.00000000
Si      -1.78555016       0.58731966       3.33085429       0.00000000
Si      -1.33975476       1.69218891      -3.19175913       0.00000000
Si       3.72034278      -1.44967968      -0.28052920       0.00000000
Si       3.33531234       2.17095201       0.63882648       0.00000000
