10
Lattice="16.28999089631971 0.0 0.0 0.0 16.28999089631971 0.0 0.0 0.0 34.395419527814205" Properties=species:S:1:pos:R:3:initial_magmoms:R:1 pbc="T T T"
Si       0.50178413      -1.75791906      -1.56753773       0.00000000
Si       0.01456163       2.36690442      -0.45254079       0.00000000
Si       1.56957734      -0.32268861       1.80001936       0.00000000
Si      -2.35216590      -0.99250083       0.06679594       0.00000000
Si      -0.22653526      -1.11591387       3.11602867       0.00000000
Si      -1.33336175      -2.81145852       1.42486545       0.00000000
Si      -0.93780553       1.98063594      -2.81980686       0.00000000
Si       1.78555016      -0.58731966      -3.33085429       0.00000000
Si       2.46919259       2.93032665      -0.66396955       0.00000000
Si      -1.47076852       3.27960054       1.54569662       0.00000000
