10
Lattice="16.28999089631971 0.0 0.0 0.0 16.28999089631971 0.0 0.0 0.0 34.395419527814205" Properties=species:S:1:pos:R:3:initial_magmoms:R:1 pbc="T T T"
Si       1.35716877       1.34684091      -1.36350398       0.00000000
Si      -1.35878148      -1.36699164      -1.36395112       0.00000000
Si      -1.35001746       1.44220257       1.30723305       0.00000000
Si       1.40610393      -1.34315937       1.37616150       0.00000000
Si      -2.62872545       0.00956223       2.72972521       0.00000000
Si       2.72764647       2.69495244       0.03202215       0.00000000
Si      -0.00206883       2.70632286      -2.72408435       0.00000000
Si       2.71438641      -0.00731421      -2.72367161       0.00000000
Si      -2.71638519      -0.00778662      -2.72398117       0.00000000
Si      -2.71309624      -2.73320136       0.01221038       0.00000000
