10
Lattice="16.28999089631971 0.0 0.0 0.0 16.28999089631971 0.0 0.0 0.0 34.395419527814205" Properties=species:S:1:pos:R:3:initial_magmoms:R:1 pbc="T T T"
Si       0.88760300       1.84086774      -1.17432907       0.00000000
Si      -2.36414882       0.29346435       0.09314285       0.00000000
Si       0.79358527      -1.66084695      -1.51663248       0.00000000
Si       0.95236716       0.38626848       2.36726607       0.00000000
Si      -2.36783036       2.65038300      -0.32053109       0.00000000
Si       0.93780553      -1.98063594       2.81980686       0.00000000
Si      -0.00801957       3.58484256       0.04065541       0.00000000
Si      -2.91442502      -1.19847159      -1.77184663       0.00000000
Si      -1.20066815      -2.88712557      -1.83664764       0.00000000
Si       3.19767161       1.41509601      -1.33244490       0.00000000
