10
Lattice="16.28999089631971 0.0 0.0 0.0 16.28999089631971 0.0 0.0 0.0 34.395419527814205" Properties=species:S:1:pos:R:3:initial_magmoms:R:1 pbc="T T T"
Si       1.35141169       1.30311855       1.51910004       0.00000000
Si      -1.32590261      -1.49765373       1.38640244       0.00000000
Si      -1.98265025       0.96946677      -1.07891612       0.00000000
Si       1.48533015      -0.91269612      -1.99823741       0.00000000
Si      -2.88755975      -1.14735357      -1.92442480       0.00000000
Si       2.03948826       3.16146546       0.25494106       0.00000000
Si       1.76558820       2.54000196      -2.23030343       0.00000000
Si      -2.48752622      -2.92032459      -0.14989532       0.00000000
Si       1.47076852      -3.27960054      -1.54569662       0.00000000
Si      -0.01887252       2.56736916       2.95456960       0.00000000
