10
Lattice="16.28999089631971 0.0 0.0 0.0 16.28999089631971 0.0 0.0 0.0 34.395419527814205" Properties=species:S:1:pos:R:3:initial_magmoms:R:1 pbc="T T T"
Si      -1.34873249      -1.34420193       1.35553800       0.00000000
Si      -1.42767383       1.24690176      -1.39176671       0.00000000
Si       1.37028421      -1.26425061      -1.43546956       0.00000000
Si       1.36339842       1.37311668       1.35416218       0.00000000
Si       2.05836078       0.59409630      -2.69962854       0.00000000
Si       0.34495251       2.34797544      -2.55248826       0.00000000
Si      -2.68959497       2.71798668      -0.00178512       0.00000000
Si       0.00464788      -2.70464499       2.71402025       0.00000000
Si      -2.69676257      -2.72422557      -0.02491950       0.00000000
Si      -2.70862169       0.01187541       2.71463937       0.00000000
