10
Lattice="16.28999089631971 0.0 0.0 0.0 16.28999089631971 0.0 0.0 0.0 34.395419527814205" Properties=species:S:1:pos:R:3:initial_magmoms:R:1 pbc="T T T"
Si       1.35641129       1.35648372      -1.35734720       0.00000000
Si       1.35391891      -1.35713619       1.35996125       0.00000000
Si      -1.35874831      -1.35821133      -1.35690006       0.00000000
Si      -1.35963089       1.35640843       1.36102751       0.00000000
Si      -0.02448224      -2.68943013       2.72762708       0.00000000
Si      -0.00064020       2.71376806      -2.71448803       0.00000000
Si       2.71439456       2.71423070      -0.00065351       0.00000000
Si       2.71401988      -0.00070047      -2.71466000       0.00000000
Si      -2.71497189       2.71431866       0.00075670       0.00000000
Si       2.71344973      -2.71632492       0.00010319       0.00000000
