10
Lattice="16.28999089631971 0.0 0.0 0.0 16.28999089631971 0.0 0.0 0.0 34.395419527814205" Properties=species:S:1:pos:R:3:initial_magmoms:R:1 pbc="T T T"
Si       1.35472690       1.34306815      -1.38114884       0.00000000
Si       1.35927181      -1.32391681       1.41289583       0.00000000
Si      -1.36025643      -1.37076630      -1.37750293       0.00000000
Si      -1.32687572       1.34186269       1.57912899       0.00000000
Si      -0.33862186      -2.16715711       2.76618437       0.00000000
Si      -2.13511957      -0.60644738       2.87683450       0.00000000
Si       2.70295246       2.70971770      -0.00165098       0.00000000
Si      -2.71672144       2.69800519       0.01640662       0.00000000
Si      -0.00105396       2.70087223      -2.73808330       0.00000000
Si       2.71784152      -2.73075853       0.00650074       0.00000000
