10
Lattice="10.86 0.0 0.0 0.0 10.86 0.0 0.0 0.0 10.86" Properties=species:S:1:pos:R:3:initial_magmoms:R:1 pbc="T T T"
Si       1.07669298       1.43475804      -1.42842666       0.00000000
Si       1.32196608       0.29004888       1.91916834       0.00000000
Si      -1.56098382       1.26669954       1.23032940       0.00000000
Si      -1.54094712      -1.27098924      -1.48716840       0.00000000
Si       2.47512432       2.78304876      -0.13414272       0.00000000
Si       2.47512432       0.06804876      -2.84914272       0.00000000
Si      -0.23987568       2.78304876       2.58085728       0.00000000
Si      -0.23987568      -2.64695124      -2.84914272       0.00000000
Si      -2.95487568       0.06804876       2.58085728       0.00000000
Si      -2.95487568      -2.64695124      -0.13414272       0.00000000
