10
Lattice="10.86 0.0 0.0 0.0 10.86 0.0 0.0 0.0 10.86" Properties=species:S:1:pos:R:3:initial_magmoms:R:1 pbc="T T T"
Si      -1.17461760       1.42224732      -1.52125794       0.00000000
Si       1.54038240       1.42224732       1.19374206       0.00000000
Si       1.54038240      -1.29275268      -1.52125794       0.00000000
Si      -2.32777584      -1.07075256       0.53205312       0.00000000
Si      -2.49206592      -0.06833112       2.30649024       0.00000000
Si      -2.53211760       2.77974732      -0.16375794       0.00000000
Si       0.18288240       2.77974732       2.55124206       0.00000000
Si       0.22799484      -2.76315324       2.56963890       0.00000000
Si      -2.57304894       0.07395660      -2.81554188       0.00000000
Si       2.89788240       0.06474732       2.55124206       0.00000000
