10
Lattice="16.28999089631971 0.0 0.0 0.0 16.28999089631971 0.0 0.0 0.0 34.279985188174585" Properties=species:S:1:pos:R:3:initial_magmoms:R:1 pbc="T T T"
Si       1.35899162      -1.16696836      -1.65150777       0.00000000
Si       1.26125814       1.52313129       1.46310487       0.00000000
Si      -0.76095707      -1.81172330       1.56279112       0.00000000
Si      -1.36909535       1.52772507      -1.62943145       0.00000000
Si      -2.47326413      -2.42232968      -0.19567026       0.00000000
Si       2.74887723      -2.58158123      -0.29391676       0.00000000
Si       1.07470017      -3.50706500       1.17251327       0.00000000
Si       2.65227753       2.83221198      -0.21133623       0.00000000
Si      -0.00444341      -2.52886679      -3.03696842       0.00000000
Si      -2.85761039       2.75563269      -0.09913777       0.00000000
