10
Lattice="16.28999089631971 0.0 0.0 0.0 16.28999089631971 0.0 0.0 0.0 34.279985188174585" Properties=species:S:1:pos:R:3:initial_magmoms:R:1 pbc="T T T"
Si       1.96465545       1.19954673       0.42205541       0.00000000
Si      -1.38142458       1.96423191       0.08347181       0.00000000
Si      -0.34080309      -1.79475890       1.57588608       0.00000000
Si       0.65283804      -0.89925687      -2.17472348       0.00000000
Si       3.71964231      -0.30064824      -0.01676292       0.00000000
Si       1.94880528       2.98592442      -1.12332146       0.00000000
Si       1.86054606       1.86455340       2.67438882       0.00000000
Si       1.50167736      -3.18181167       1.31134729       0.00000000
Si      -2.17197828      -2.98967275       0.72985557       0.00000000
Si      -0.34946937       3.56493618      -1.34082809       0.00000000
