10
Lattice="16.28999089631971 0.0 0.0 0.0 16.28999089631971 0.0 0.0 0.0 34.279985188174585" Properties=species:S:1:pos:R:3:initial_magmoms:R:1 pbc="T T T"
Si      -1.35710361       1.35777150      -1.35957925       0.00000000
Si       1.35757602      -1.35812988      -1.35920217       0.00000000
Si       1.35466011       1.37073834       1.36040197       0.00000000
Si      -1.35837423      -1.35894438       1.37733629       0.00000000
Si      -2.71458189      -2.71430496      -0.00044564       0.00000000
Si      -2.71389771       2.71507059       0.00017140       0.00000000
Si       2.71252935       2.71682991      -0.00023996       0.00000000
Si      -2.71406061       0.00042354      -2.71696458       0.00000000
Si       0.00052128      -2.71480995      -2.71744450       0.00000000
Si       0.00079821       2.71526607      -2.71730738       0.00000000
