10
Lattice="16.28999089631971 0.0 0.0 0.0 16.28999089631971 0.0 0.0 0.0 34.279985188174585" Properties=species:S:1:pos:R:3:initial_magmoms:R:1 pbc="T T T"
Si       1.35786924       1.34609157      -1.36064193       0.00000000
Si       1.42530984      -1.28093157       1.35985349       0.00000000
Si      -1.35466011      -1.37073834      -1.36040197       0.00000000
Si      -1.35576783       1.34962650       1.42474554       0.00000000
Si       0.02590110      -2.58748731       2.74240035       0.00000000
Si      -2.71006956       2.69641854       0.00243388       0.00000000
Si       0.00299736       2.70179424      -2.72073538       0.00000000
Si       2.71529865       2.70772380       0.01155236       0.00000000
Si      -2.71176372      -0.01296684      -2.71998122       0.00000000
Si       2.71733490      -0.01392795      -2.71970698       0.00000000
