10
Lattice="16.28999089631971 0.0 0.0 0.0 16.28999089631971 0.0 0.0 0.0 34.279985188174585" Properties=species:S:1:pos:R:3:initial_magmoms:R:1 pbc="T T T"
Si       0.86159439       0.02767671      -2.12330347       0.00000000
Si      -0.80576856      -2.13079716       0.33601260       0.00000000
Si       2.00368629       0.32532759       1.19465815       0.00000000
Si      -1.45016838       1.66252482       0.91109396       0.00000000
Si       2.34738900       2.31567237      -0.01546028       0.00000000
Si       1.35721764       2.24886708      -2.11898419       0.00000000
Si       0.43751682      -3.30558309      -1.29324744       0.00000000
Si      -0.84253509       1.52231679       3.18780044       0.00000000
Si       0.15977232      -2.94187626       2.35390506       0.00000000
Si       1.45573956       0.94330503       3.40530707       0.00000000
