10
Lattice="16.28999089631971 0.0 0.0 0.0 16.28999089631971 0.0 0.0 0.0 34.279985188174585" Properties=species:S:1:pos:R:3:initial_magmoms:R:1 pbc="T T T"
Si      -2.09376999       0.63306198       0.81490426       0.00000000
Si       0.11205891      -0.56531187      -2.27149593       0.00000000
Si       1.40450751       1.81547163       0.53569363       0.00000000
Si       0.33575319      -2.01368835       1.25663640       0.00000000
Si       3.26800206       0.39130209       0.57165335       0.00000000
Si      -1.65216438      -3.12958593       0.67545321       0.00000000
Si      -3.01658220      -1.41784902       1.47510287       0.00000000
Si      -1.47181779       1.86538419       2.78967247       0.00000000
Si       2.08627659      -1.91412387      -2.38653962       0.00000000
Si       0.73383192      -1.35011520       3.48346548       0.00000000
