10
Lattice="16.28999089631971 0.0 0.0 0.0 16.28999089631971 0.0 0.0 0.0 34.279985188174585" Properties=species:S:1:pos:R:3:initial_magmoms:R:1 pbc="T T T"
Si       1.35609363      -1.35594702       1.36071049       0.00000000
Si      -1.34842104      -1.35739683      -1.37097050       0.00000000
Si      -1.35915615       1.36129599       1.36132753       0.00000000
Si       1.37350764       1.34953756      -1.38523441       0.00000000
Si      -0.07094295       2.68121901      -2.71849347       0.00000000
Si       2.71684620      -2.71106325       0.00335944       0.00000000
Si      -0.00032580      -2.71246419       2.71754734       0.00000000
Si      -2.71658556      -2.71362078      -0.00020568       0.00000000
Si       2.71415835       0.00232947       2.71747878       0.00000000
Si       2.71337643       2.71981980      -0.00130264       0.00000000
