10
Lattice="16.28999089631971 0.0 0.0 0.0 16.28999089631971 0.0 0.0 0.0 34.279985188174585" Properties=species:S:1:pos:R:3:initial_magmoms:R:1 pbc="T T T"
Si      -1.30005603       1.37464794      -1.45857990       0.00000000
Si       1.38406356      -1.32717888      -1.45227238       0.00000000
Si      -1.72950930      -1.09902114       1.28450604       0.00000000
Si       1.89174141       0.80335764       1.31950593       0.00000000
Si      -0.79249221      -1.05608070       3.41754503       0.00000000
Si       2.63793744       2.61006525      -0.11192421       0.00000000
Si      -2.63529846       2.68789887      -0.07562169       0.00000000
Si       2.76488541      -2.61853605      -0.05673341       0.00000000
Si      -2.67253740       0.02678076      -2.81603380       0.00000000
Si       0.04101822      -2.68234398      -2.81846768       0.00000000
