10
Lattice="16.28999089631971 0.0 0.0 0.0 16.28999089631971 0.0 0.0 0.0 34.279985188174585" Properties=species:S:1:pos:R:3:initial_magmoms:R:1 pbc="T T T"
Si      -0.99544932       1.02195315      -1.81039559       0.00000000
Si      -1.40006034      -0.67041495       1.76398046       0.00000000
Si       1.83703959       1.31768181       0.65677060       0.00000000
Si       0.71812836      -2.03137929      -0.96114276       0.00000000
Si      -1.57187097       3.04667865      -0.66177548       0.00000000
Si       0.92965401       1.83151728      -2.96600882       0.00000000
Si       3.20458509      -0.23252346       1.73823618       0.00000000
Si      -1.45590246      -3.02567202       1.58545020       0.00000000
Si       2.68446168       2.22467643      -1.29410444       0.00000000
Si       0.66657051      -3.59909631       0.81908642       0.00000000
