10
Lattice="16.28999089631971 0.0 0.0 0.0 16.28999089631971 0.0 0.0 0.0 34.279985188174585" Properties=species:S:1:pos:R:3:initial_magmoms:R:1 pbc="T T T"
Si       1.89190431      -0.17418897      -1.50849159       0.00000000
Si       1.08392031      -1.30994406       1.74670334       0.00000000
Si      -1.86756705      -0.76255119      -1.42971614       0.00000000
Si       0.82929132       1.89553276      -1.65215909       0.00000000
Si      -1.98319347       1.82542875       1.83106643       0.00000000
Si      -1.06069077       1.17139761      -2.86258604       0.00000000
Si       2.03177025      -3.26767626       0.62389608       0.00000000
Si       2.49823440       0.11534949       3.08796820       0.00000000
Si      -3.83616468       0.92540232      -1.04917381       0.00000000
Si      -0.23389182      -2.53120536       3.23029878       0.00000000
