10
Lattice="16.28999089631971 0.0 0.0 0.0 16.28999089631971 0.0 0.0 0.0 34.279985188174585" Properties=species:S:1:pos:R:3:initial_magmoms:R:1 pbc="T T T"
Si      -0.45470277       2.23822971      -0.40834341       0.00000000
Si       0.05157414      -0.93870311      -2.16865591       0.00000000
Si      -1.95097185      -0.32869962       1.30582821       0.00000000
Si       1.67469345      -0.77040297       1.57934836       0.00000000
Si      -1.56556674      -2.61639296       1.62699757       0.00000000
Si      -1.91143602      -0.13693374      -3.13881432       0.00000000
Si      -1.30605075       0.60848037       3.40496427       0.00000000
Si       1.03465935       3.50906148       0.82001198       0.00000000
Si       0.52807293      -2.59503677       2.65601474       0.00000000
Si      -0.47592864      -3.22560638      -2.08436138       0.00000000
