10
Lattice="16.28999089631971 0.0 0.0 0.0 16.28999089631971 0.0 0.0 0.0 34.279985188174585" Properties=species:S:1:pos:R:3:initial_magmoms:R:1 pbc="T T T"
Si      -1.97791551      -0.93455730      -1.03755598       0.00000000
Si       1.31214321      -1.40970402       1.47117438       0.00000000
Si      -1.41038820       1.31694876       1.49360036       0.00000000
Si       0.87434946       1.91679543      -1.25567797       0.00000000
Si       1.71823662      -0.09073530      -2.31983214       0.00000000
Si      -2.78322795       2.56179798      -0.01874088       0.00000000
Si       2.66295888       2.74449033       0.08804476       0.00000000
Si       2.66137875      -0.03694572       2.86547928       0.00000000
Si      -0.05313798       2.67586056       2.86918152       0.00000000
Si       2.68765452      -2.89687839      -0.06206738       0.00000000
