10
Lattice="16.28999089631971 0.0 0.0 0.0 16.28999089631971 0.0 0.0 0.0 34.279985188174585" Properties=species:S:1:pos:R:3:initial_magmoms:R:1 pbc="T T T"
Si       1.35609363       1.35803214      -1.35724821       0.00000000
Si      -1.35739683       1.35769005       1.35728249       0.00000000
Si       1.35785295      -1.35710361       1.35748817       0.00000000
Si      -1.35930276      -1.35702216      -1.35659689       0.00000000
Si       0.00057015       2.71231758      -2.71497634       0.00000000
Si       0.00174303      -2.71389771       2.71343374       0.00000000
Si      -2.71365336       0.00079821      -2.71494206       0.00000000
Si      -0.00112401       2.71394658       2.71538770       0.00000000
Si       2.71503801       2.71489140      -0.00027424       0.00000000
Si      -2.71487511       2.71520091      -0.00003428       0.00000000
