10
Lattice="16.28999089631971 0.0 0.0 0.0 16.28999089631971 0.0 0.0 0.0 34.279985188174585" Properties=species:S:1:pos:R:3:initial_magmoms:R:1 pbc="T T T"
Si      -1.35627282      -1.35625653      -1.35810521       0.00000000
Si       1.35907470       1.35793440      -1.35783097       0.00000000
Si      -1.35946566       1.36001952       1.35906505       0.00000000
Si       1.36256076      -1.35739683       1.35899649       0.00000000
Si      -2.71375110       0.00125433      -2.71542198       0.00000000
Si       0.00112401      -2.71394658      -2.71538770       0.00000000
Si      -2.71441899      -2.71494027       0.00010284       0.00000000
Si       2.71459818       2.71541268       0.00020568       0.00000000
Si      -2.71433754       2.71572219      -0.00102840       0.00000000
Si       2.71718829      -2.71371852      -0.00102840       0.00000000
