10
Lattice="16.28999089631971 0.0 0.0 0.0 16.28999089631971 0.0 0.0 0.0 34.279985188174585" Properties=species:S:1:pos:R:3:initial_magmoms:R:1 pbc="T T T"
Si      -0.07739379       2.30091363       0.50621282       0.00000000
Si      -0.45625032      -0.68901813       2.22425808       0.00000000
Si       2.08334439      -0.67714272      -0.91675016       0.00000000
Si      -1.72297701      -0.94571595      -1.36780645       0.00000000
Si       0.00234576       1.30774491      -3.24216853       0.00000000
Si      -2.18678589       2.34017253       1.51023987       0.00000000
Si      -1.91298357      -3.06418158      -0.50621282       0.00000000
Si       1.03311180       0.58181364       3.45261348       0.00000000
Si      -3.67258050       0.05217687      -0.59760332       0.00000000
Si      -2.53048860       0.34982775       2.72035830       0.00000000
