10
Lattice="16.28999089631971 0.0 0.0 0.0 16.28999089631971 0.0 0.0 0.0 34.279985188174585" Properties=species:S:1:pos:R:3:initial_magmoms:R:1 pbc="T T T"
Si      -0.11205891       0.56531187       2.27149593       0.00000000
Si       0.35802162       1.96405272      -1.27165104       0.00000000
Si      -1.67596407      -1.44290304      -0.85076115       0.00000000
Si       1.97421768      -1.34881200      -0.11504369       0.00000000
Si      -1.66011390      -3.22928073       0.69461573       0.00000000
Si       2.56544694       1.95895395      -2.01823526       0.00000000
Si      -1.09289610       1.90265571      -3.12033740       0.00000000
Si       0.22369428      -1.44837648       3.52813233       0.00000000
Si       2.43558306      -1.82889459      -2.32915490       0.00000000
Si       3.75834735      -0.09179415       0.81785234       0.00000000
