10
Lattice="16.28999089631971 0.0 0.0 0.0 16.28999089631971 0.0 0.0 0.0 34.279985188174585" Properties=species:S:1:pos:R:3:initial_magmoms:R:1 pbc="T T T"
Si      -2.11533795      -0.56992194      -0.86666707       0.00000000
Si       0.24122232       1.89473877      -1.38110710       0.00000000
Si       1.85973156      -1.41125157      -0.42359801       0.00000000
Si       2.66131359      -1.10205108       1.82242787       0.00000000
Si       1.81742643       0.90547965       2.88658205       0.00000000
Si      -1.56146166       3.29800824      -0.62794112       0.00000000
Si      -3.19992615       1.60521660      -1.02085853       0.00000000
Si       0.94951152      -3.30981849      -1.51082263       0.00000000
Si      -1.03483854      -1.94587308       3.10470404       0.00000000
Si      -0.15685641       1.23116562      -3.60793618       0.00000000
