10
Lattice="16.28999089631971 0.0 0.0 0.0 16.28999089631971 0.0 0.0 0.0 34.279985188174585" Properties=species:S:1:pos:R:3:initial_magmoms:R:1 pbc="T T T"
Si       2.20742532      -0.00509877      -0.74658421       0.00000000
Si      -0.22579569       2.21602644       0.75062926       0.00000000
Si      -1.45091772      -0.06139701      -1.84868635       0.00000000
Si      -0.35802162      -1.96405272       1.27165104       0.00000000
Si       2.10072582       1.68977799      -2.31520293       0.00000000
Si       1.08709686       3.30517584      -0.92953660       0.00000000
Si       2.40344289      -1.78478127      -2.18936104       0.00000000
Si      -3.57339069       0.51202728      -1.08232258       0.00000000
Si       0.87330690       2.42479908       2.78459903       0.00000000
Si      -1.14233625      -2.03458842      -2.99987746       0.00000000
