10
Lattice="16.28999089631971 0.0 0.0 0.0 16.28999089631971 0.0 0.0 0.0 34.279985188174585" Properties=species:S:1:pos:R:3:initial_magmoms:R:1 pbc="T T T"
Si      -1.35604476       1.35639540       1.35683685       0.00000000
Si       1.36001952      -1.35840681       1.35738533       0.00000000
Si       1.35734796       1.36966845      -1.35886280       0.00000000
Si      -1.36914192      -1.35739683      -1.37290389       0.00000000
Si       2.62905939      -0.04909806      -2.69452489       0.00000000
Si      -2.71070487      -2.71476108       0.00089128       0.00000000
Si      -2.71339272      -0.00136836       2.71501062       0.00000000
Si       0.00177561       2.71391304       2.71470210       0.00000000
Si       2.71687878       2.71291121      -0.00253672       0.00000000
Si      -2.71417464       2.71612197      -0.00377080       0.00000000
