10
Lattice="16.28999089631971 0.0 0.0 0.0 16.28999089631971 0.0 0.0 0.0 34.279985188174585" Properties=species:S:1:pos:R:3:initial_magmoms:R:1 pbc="T T T"
Si      -1.35641943      -1.35651717       1.35683685       0.00000000
Si      -1.35609363       1.35594702      -1.36071049       0.00000000
Si       1.35806472       1.35827649       1.35676829       0.00000000
Si       1.36075257      -1.35511623      -1.35735105       0.00000000
Si      -0.00876402      -2.70181053      -2.71412620       0.00000000
Si       0.00065160      -2.71373481       2.71391366       0.00000000
Si      -2.71441899       0.00114030       2.71435930       0.00000000
Si      -2.71489140      -2.71425609      -0.00085700       0.00000000
Si       2.71606428      -2.71331127       0.00065132       0.00000000
Si       2.71560816       0.00107514       2.71418790       0.00000000
