10
Lattice="16.28999089631971 0.0 0.0 0.0 16.28999089631971 0.0 0.0 0.0 34.279985188174585" Properties=species:S:1:pos:R:3:initial_magmoms:R:1 pbc="T T T"
Si       0.76577661       1.86334372       1.44234631       0.00000000
Si      -1.90428471      -0.74951919       1.43909999       0.00000000
Si       1.81695402      -1.86342939       0.19447046       0.00000000
Si      -0.21409947      -0.61553394      -3.08201235       0.00000000
Si      -0.63128637      -2.06270496       3.00058847       0.00000000
Si       2.09520351       0.66436032       3.01462956       0.00000000
Si       3.36691494      -0.75440619       1.67896746       0.00000000
Si       0.70708374      -3.46700070       1.65243817       0.00000000
Si       1.79304030       3.47578820      -0.02903516       0.00000000
Si      -3.31859880      -2.17481274       0.09783513       0.00000000
