10
Lattice="16.28999089631971 0.0 0.0 0.0 16.28999089631971 0.0 0.0 0.0 34.279985188174585" Properties=species:S:1:pos:R:3:initial_magmoms:R:1 pbc="T T T"
Si      -1.35716877       1.35643572      -1.36019629       0.00000000
Si       1.35557235      -1.35986151      -1.35961353       0.00000000
Si       1.35149985       1.33615467       1.40582298       0.00000000
Si      -1.35283563      -1.35112844       1.40026962       0.00000000
Si      -2.71179630       2.71275741      -0.00017140       0.00000000
Si       2.71209055       2.71707426       0.00421644       0.00000000
Si      -0.00118917       2.71353933      -2.71699886       0.00000000
Si       2.71420781      -0.00144981      -2.71669034       0.00000000
Si      -2.71538010      -0.00089595      -2.71706742       0.00000000
Si      -0.00060273      -2.71631204      -2.71693030       0.00000000
