10
Lattice="16.28999089631971 0.0 0.0 0.0 16.28999089631971 0.0 0.0 0.0 34.279985188174585" Properties=species:S:1:pos:R:3:initial_magmoms:R:1 pbc="T T T"
Si      -1.35149985      -1.33615467      -1.40582298       0.00000000
Si       1.36059070       1.38091959      -1.40160654       0.00000000
Si      -1.48851504       1.22790762       1.53029367       0.00000000
Si       1.36909535      -1.52772507       1.62943145       0.00000000
Si      -2.70433548      -2.68728311      -0.00555336       0.00000000
Si       2.72808697      -2.69469343      -0.02207632       0.00000000
Si      -2.71520091       2.73486294      -0.01175804       0.00000000
Si       2.72329445       2.72763018      -0.02231628       0.00000000
Si       0.00407250      -2.69601618      -2.76543651       0.00000000
Si      -2.70866862       0.02028105      -2.76601927       0.00000000
