10
Lattice="16.28999089631971 0.0 0.0 0.0 16.28999089631971 0.0 0.0 0.0 34.279985188174585" Properties=species:S:1:pos:R:3:initial_magmoms:R:1 pbc="T T T"
Si       0.76095707       1.81172330      -1.56279112       0.00000000
Si       1.83565724      -1.69534170      -0.39027785       0.00000000
Si      -1.71230706      -0.61060638      -1.75846138       0.00000000
Si      -0.24200424       0.00094319       2.91959369       0.00000000
Si      -3.03137352      -2.15538759      -0.52338711       0.00000000
Si      -0.59458500      -2.07708156      -3.23287865       0.00000000
Si       0.76581615      -3.38228523      -1.77268758       0.00000000
Si       2.02221521       3.33485459      -0.09968625       0.00000000
Si       2.11994869       0.64475494      -3.21429889       0.00000000
Si      -0.54750690      -2.37056220       3.20247229       0.00000000
