10
Lattice="16.28999089631971 0.0 0.0 0.0 16.28999089631971 0.0 0.0 0.0 34.279985188174585" Properties=species:S:1:pos:R:3:initial_magmoms:R:1 pbc="T T T"
Si       1.81825722       1.44177903       0.15806510       0.00000000
Si       0.14390586      -1.58804857       1.72301586       0.00000000
Si      -0.35088660      -1.27229787      -1.96540977       0.00000000
Si      -1.67852160       1.40797728       0.98764121       0.00000000
Si      -1.98400797      -2.44473804       1.40321770       0.00000000
Si      -1.72936269      -2.87358793      -0.90386087       0.00000000
Si       2.25860850       1.04220162       2.49273908       0.00000000
Si      -0.58088511       3.46403592       1.42693946       0.00000000
Si       1.14679971       3.64519701      -0.23234987       0.00000000
Si      -3.42507024       1.63556487      -0.59208424       0.00000000
