10
Lattice="16.28999089631971 0.0 0.0 0.0 16.28999089631971 0.0 0.0 0.0 34.279985188174585" Properties=species:S:1:pos:R:3:initial_magmoms:R:1 pbc="T T T"
Si       0.90797202       0.06312375      -2.11607039       0.00000000
Si      -2.27263419       0.44375589       0.11686053       0.00000000
Si       1.06201026       1.53178128       1.40448606       0.00000000
Si      -0.36667161      -2.18603655       0.89241135       0.00000000
Si      -2.59851564      -1.56441015       1.24871772       0.00000000
Si       1.88903727      -2.33409636      -1.75386786       0.00000000
Si       2.96888508       0.90178182      -1.61798193       0.00000000
Si      -0.10606419      -3.41954793      -1.20168555       0.00000000
Si      -2.46865176       2.22343839       1.55963736       0.00000000
Si      -0.61325334       1.99498743       3.03024954       0.00000000
