10
Lattice="16.28999089631971 0.0 0.0 0.0 16.28999089631971 0.0 0.0 0.0 34.279985188174585" Properties=species:S:1:pos:R:3:initial_magmoms:R:1 pbc="T T T"
Si       2.06091306       0.83865807       0.49808846       0.00000000
Si      -0.90797202      -0.06312375       2.11607039       0.00000000
Si      -1.18172547      -0.63438147      -1.91313276       0.00000000
Si       0.98106525      -2.39722011       0.36220253       0.00000000
Si       2.08564128      -2.04379227      -1.73035178       0.00000000
Si       0.68714478      -0.86218083      -3.41411703       0.00000000
Si       3.57854389      -0.60696540      -0.49370062       0.00000000
Si      -1.01403621      -3.48267168       0.91438484       0.00000000
Si       2.00399580       3.13009092       0.86166219       0.00000000
Si       0.15403824       1.46865753       3.52055645       0.00000000
