10
Lattice="16.28999089631971 0.0 0.0 0.0 16.28999089631971 0.0 0.0 0.0 34.279985188174585" Properties=species:S:1:pos:R:3:initial_magmoms:R:1 pbc="T T T"
Si       1.97932364      -0.00959481       1.20891863       0.00000000
Si       0.05691726      -2.29143285      -0.36357373       0.00000000
Si      -1.77337827       0.38877714       1.51335935       0.00000000
Si       0.61957127       0.67421052      -2.59876713       0.00000000
Si       2.19091445       2.31547689       1.13994726       0.00000000
Si      -3.49703946       0.97176366       0.06400077       0.00000000
Si      -1.84995756      -1.66143339       2.65889426       0.00000000
Si       0.15299945       3.50810037       1.35100925       0.00000000
Si      -2.00399580      -3.13009092      -0.86166219       0.00000000
Si      -1.39761684       2.40194421       2.73208207       0.00000000
