10
Lattice="16.28999089631971 0.0 0.0 0.0 16.28999089631971 0.0 0.0 0.0 34.279985188174585" Properties=species:S:1:pos:R:3:initial_magmoms:R:1 pbc="T T T"
Si       1.35742623      -1.35714434      -1.35783097       0.00000000
Si      -1.35728339       1.35769005      -1.35817377       0.00000000
Si       1.35872617       1.35764118       1.35687113       0.00000000
Si      -1.35863546      -1.35841170       1.35707681       0.00000000
Si      -2.71425668      -0.00037467      -2.71459926       0.00000000
Si      -2.71481054      -2.71486223      -0.00023996       0.00000000
Si       0.00066730       2.71477737      -2.71507918       0.00000000
Si       2.71504461      -2.71493217      -0.00109696       0.00000000
Si       0.00052262      -2.71556036      -2.71459926       0.00000000
Si      -2.71539698       2.71498914      -0.00030852       0.00000000
