10
Lattice="16.28999089631971 0.0 0.0 0.0 16.28999089631971 0.0 0.0 0.0 34.279985188174585" Properties=species:S:1:pos:R:3:initial_magmoms:R:1 pbc="T T T"
Si      -1.56890619       1.67668083       0.17712478       0.00000000
Si      -0.53656002      -1.84067226      -1.40729702       0.00000000
Si      -0.12628008      -1.00312191       2.15319563       0.00000000
Si       1.94937543       1.25252181      -0.68464025       0.00000000
Si       2.15637246      -1.28493891       2.35486490       0.00000000
Si      -0.69318837       2.82615210       2.06708426       0.00000000
Si      -1.80146223      -2.61456129       1.98347533       0.00000000
Si       1.59104430       1.75949919      -2.95987270       0.00000000
Si      -1.19905803      -3.66296940      -0.04182161       0.00000000
Si      -3.72607686       0.81767655       0.65327404       0.00000000
