10
Lattice="16.28999089631971 0.0 0.0 0.0 16.28999089631971 0.0 0.0 0.0 34.279985188174585" Properties=species:S:1:pos:R:3:initial_magmoms:R:1 pbc="T T T"
Si       1.35661491       1.35733167       1.35762529       0.00000000
Si      -1.35850455      -1.35742941       1.35800237       0.00000000
Si      -1.36001952       1.35840681      -1.35738533       0.00000000
Si       1.35928647      -1.35884664      -1.35913361       0.00000000
Si       2.71315335      -2.71489140      -0.00003428       0.00000000
Si       2.71450237       2.71426220       0.00095984       0.00000000
Si       2.71439178      -0.00009774       2.71497634       0.00000000
Si      -2.71541268      -2.71454931       0.00150832       0.00000000
Si       2.71162917      -0.00617391      -2.71854146       0.00000000
Si      -0.00083079       2.71496033       2.71531914       0.00000000
