10
Lattice="16.28999089631971 0.0 0.0 0.0 16.28999089631971 0.0 0.0 0.0 34.279985188174585" Properties=species:S:1:pos:R:3:initial_magmoms:R:1 pbc="T T T"
Si      -1.48367691       1.22811939       1.27648452       0.00000000
Si       1.31906646       1.54478121      -1.23507428       0.00000000
Si       1.25107200      -1.34284986       1.60584680       0.00000000
Si      -1.61907939      -1.23561279      -1.34226785       0.00000000
Si      -1.52500464      -0.30017583       3.06579791       0.00000000
Si       2.43678852       0.07830603      -2.70949154       0.00000000
Si       3.03137352       2.15538759       0.52338711       0.00000000
Si       2.64877029      -2.65782753       0.27430859       0.00000000
Si      -0.27372087      -2.64678291      -2.69218014       0.00000000
Si      -0.28110024       2.80755285      -2.67438882       0.00000000
