10
Lattice="16.28999089631971 0.0 0.0 0.0 16.28999089631971 0.0 0.0 0.0 34.279985188174585" Properties=species:S:1:pos:R:3:initial_magmoms:R:1 pbc="T T T"
Si      -0.35833113       0.50697738      -2.27523245       0.00000000
Si       1.91455623      -1.40007663       0.03061204       0.00000000
Si      -1.94937543      -1.25252181       0.68464025       0.00000000
Si       0.53328573       2.01844503       1.25211144       0.00000000
Si      -3.51828162       0.42415902       0.86176503       0.00000000
Si       3.67951094       0.12948921       0.23310403       0.00000000
Si      -0.38395530       1.53095049       3.35587531       0.00000000
Si       2.89231298       1.90962783       1.51661595       0.00000000
Si      -0.73409256      -1.50618969      -3.49395516       0.00000000
Si       1.60298717      -3.33337383       1.33198385       0.00000000
