10
Lattice="16.28999089631971 0.0 0.0 0.0 16.28999089631971 0.0 0.0 0.0 34.279985188174585" Properties=species:S:1:pos:R:3:initial_magmoms:R:1 pbc="T T T"
Si      -1.74029328      -0.51476400       1.47870227       0.00000000
Si      -0.20738799      -0.67339602      -2.24979669       0.00000000
Si       1.72652823      -1.59707160       0.37457761       0.00000000
Si       0.24560433       2.40994001      -0.11706621       0.00000000
Si       3.27714452      -0.49091544      -1.00649521       0.00000000
Si       1.93336236      -0.09513360      -3.06764903       0.00000000
Si      -3.37680297      -1.65851748       0.27358871       0.00000000
Si      -2.89292481       1.42925202       1.98162421       0.00000000
Si      -1.74630429       3.25388582       0.90495783       0.00000000
Si      -0.37289439      -3.02725215      -2.29350369       0.00000000
