10
Lattice="16.28999089631971 0.0 0.0 0.0 16.28999089631971 0.0 0.0 0.0 34.279985188174585" Properties=species:S:1:pos:R:3:initial_magmoms:R:1 pbc="T T T"
Si       1.47646533      -1.37086866       1.25365404       0.00000000
Si       1.26883299       1.17519318      -1.63488197       0.00000000
Si      -1.27774231      -1.46851092      -1.44908434       0.00000000
Si      -0.86041011       1.82915523       1.50749747       0.00000000
Si      -2.50586042       2.61617400      -0.05543077       0.00000000
Si       2.29236627       2.87261118      -0.30293240       0.00000000
Si       0.09456671      -2.58211161       2.75090179       0.00000000
Si       2.66410407      -2.83817412      -0.22686507       0.00000000
Si      -2.79683240      -2.83732704      -0.16951462       0.00000000
Si      -0.01387094       2.64308508      -3.02737002       0.00000000
