10
Lattice="16.28999089631971 0.0 0.0 0.0 16.28999089631971 0.0 0.0 0.0 34.279985188174585" Properties=species:S:1:pos:R:3:initial_magmoms:R:1 pbc="T T T"
Si       0.50471307      -0.00164529      -2.29621181       0.00000000
Si      -2.35853855      -0.33915780      -0.25809415       0.00000000
Si      -0.20901699      -2.15519958       1.05969777       0.00000000
Si       0.73334322       2.04993360       1.07982014       0.00000000
Si       1.24434423      -2.25456858      -2.38033494       0.00000000
Si      -2.90734865       1.38043089      -1.66048913       0.00000000
Si       1.51614288      -2.03512599       2.70308118       0.00000000
Si      -1.51135851       0.58451778      -3.36801043       0.00000000
Si       3.14022330      -1.75834260      -1.12842918       0.00000000
Si       0.33516675      -3.71242584      -0.78528634       0.00000000
