10
Lattice="16.28999089631971 0.0 0.0 0.0 16.28999089631971 0.0 0.0 0.0 34.279985188174585" Properties=species:S:1:pos:R:3:initial_magmoms:R:1 pbc="T T T"
Si      -1.24474985       1.90540872      -0.65029168       0.00000000
Si      -0.73334322      -2.04993360      -1.07982014       0.00000000
Si       2.20810950       1.08133020      -0.48783874       0.00000000
Si      -0.58319829      -0.54384165       2.45204871       0.00000000
Si       1.21044474       0.95987196       2.90481901       0.00000000
Si      -1.04617638       3.21605325       1.64228645       0.00000000
Si      -3.35012714       1.35496962      -1.53612127       0.00000000
Si      -0.07138278       3.30400296      -2.15312707       0.00000000
Si      -0.22863015      -2.05157889      -3.37603195       0.00000000
Si       2.03106978       2.33675163      -2.51649512       0.00000000
