10
Lattice="16.28999089631971 0.0 0.0 0.0 16.28999089631971 0.0 0.0 0.0 34.279985188174585" Properties=species:S:1:pos:R:3:initial_magmoms:R:1 pbc="T T T"
Si       1.23136273       1.56645033       1.14101406       0.00000000
Si      -0.39710200       0.88963830      -2.09680232       0.00000000
Si      -1.64784820      -1.19905803       1.11300729       0.00000000
Si      -0.77198377      -1.25825589      -3.06106457       0.00000000
Si       1.91641099       1.60046874      -2.41162988       0.00000000
Si      -0.20525890      -2.51454069       2.44637606       0.00000000
Si       2.51762602       0.19112015       2.46590880       0.00000000
Si       2.53028335      -2.63937096      -0.36837022       0.00000000
Si       3.01816885       2.17253933      -0.30378670       0.00000000
Si       1.44802462      -2.11177044      -2.74274044       0.00000000
