10
Lattice="16.28999089631971 0.0 0.0 0.0 16.28999089631971 0.0 0.0 0.0 34.279985188174585" Properties=species:S:1:pos:R:3:initial_magmoms:R:1 pbc="T T T"
Si      -1.35612295       1.35715248      -1.35951069       0.00000000
Si       1.35700587      -1.35884175      -1.35947641       0.00000000
Si       1.35620766       1.35536058       1.37778193       0.00000000
Si      -1.34947012      -1.35757765       1.38405518       0.00000000
Si       2.71264338      -2.71251853       0.00023996       0.00000000
Si       2.71458189       2.71430496       0.00044564       0.00000000
Si      -2.71484913      -0.00048870      -2.71638182       0.00000000
Si       0.00052128       2.71472850      -2.71651894       0.00000000
Si       2.71510317      -0.00050499      -2.71699886       0.00000000
Si      -2.71290514      -2.71947608      -0.00140548       0.00000000
