10
Lattice="16.28999089631971 0.0 0.0 0.0 16.28999089631971 0.0 0.0 0.0 34.279985188174585" Properties=species:S:1:pos:R:3:initial_magmoms:R:1 pbc="T T T"
Si      -1.35745107      -1.35733167       1.35669973       0.00000000
Si       1.35727484      -1.35755973      -1.35724821       0.00000000
Si       1.35694252       1.35829278       1.35687113       0.00000000
Si      -1.35777687       1.35742941      -1.35735105       0.00000000
Si       0.00153195       2.71093293       2.71555910       0.00000000
Si       2.71359001       0.00084708      -2.71398222       0.00000000
Si       0.00011059       2.71435994      -2.71401650       0.00000000
Si      -2.71439178       0.00009774      -2.71497634       0.00000000
Si      -0.00308589      -2.71236645       2.71720454       0.00000000
Si       2.71463257       2.71498814      -0.00051420       0.00000000
