10
Lattice="16.28999089631971 0.0 0.0 0.0 16.28999089631971 0.0 0.0 0.0 34.279985188174585" Properties=species:S:1:pos:R:3:initial_magmoms:R:1 pbc="T T T"
Si      -0.95566914      -0.70786566       2.03715782       0.00000000
Si      -0.27645759       2.34225765       0.10150309       0.00000000
Si      -1.15575921      -0.31009644      -2.06379338       0.00000000
Si       1.56278115      -1.26273564      -1.37894745       0.00000000
Si       2.44242486       0.57163239      -0.02032804       0.00000000
Si       1.86600321       2.59635789       1.12829206       0.00000000
Si      -2.99358414       0.48475782       2.24821981       0.00000000
Si       0.62576406      -1.30567608      -3.51198645       0.00000000
Si      -2.52701231      -2.34913203      -1.70155658       0.00000000
Si      -1.16725995      -3.03293736       2.10612919       0.00000000
