10
Lattice="10.86 0.0 0.0 0.0 10.86 0.0 0.0 0.0 10.86" Properties=species:S:1:pos:R:3:initial_magmoms:R:1 pbc="T T T"
Si       1.14660966       1.30782636       1.19448054       0.00000000
Si       1.14660966      -1.40717364      -1.52051946       0.00000000
Si      -1.56839034      -1.40717364       1.19448054       0.00000000
Si       2.50410966      -0.04967364       2.55198054       0.00000000
Si       2.50410966       2.66532636      -0.16301946       0.00000000
Si       0.11831970       2.42887158       2.81429298       0.00000000
Si       2.50410966      -2.76467364      -0.16301946       0.00000000
Si      -0.21089034      -2.76467364       2.55198054       0.00000000
Si       2.50410966      -0.04967364      -2.87801946       0.00000000
Si      -2.97908262      -0.23602038       2.45927958       0.00000000
