10
Lattice="16.28999089631971 0.0 0.0 0.0 16.28999089631971 0.0 0.0 0.0 34.51877397758722" Properties=species:S:1:pos:R:3:initial_magmoms:R:1 pbc="T T T"
Si      -1.34176725      -1.35190334      -1.38434169       0.00000000
Si       1.37348972       1.36526001      -1.38403102       0.00000000
Si       1.42446113      -1.33254741       1.43977887       0.00000000
Si      -1.49510502       1.30857081       1.42904352       0.00000000
Si       2.47374890       0.21015566       2.89208806       0.00000000
Si      -2.70121662      -2.71508266       0.00849162       0.00000000
Si      -2.70719505       2.72070204      -0.02885771       0.00000000
Si       2.73482873      -2.69761978      -0.02157425       0.00000000
Si       2.73145670       2.71672728      -0.00414226       0.00000000
Si      -2.70320400       0.00689393      -2.74617712       0.00000000
