10
Lattice="16.28999089631971 0.0 0.0 0.0 16.28999089631971 0.0 0.0 0.0 34.51877397758722" Properties=species:S:1:pos:R:3:initial_magmoms:R:1 pbc="T T T"
Si       1.41340185      -1.20540022       1.35479360       0.00000000
Si      -1.34640108      -1.35774611      -1.34795888       0.00000000
Si       1.36524861       1.36083402      -1.34167646       0.00000000
Si      -1.33112106       1.27816227       1.47657590       0.00000000
Si       0.43137549       2.11766742       2.88580564       0.00000000
Si      -0.04326624      -2.25322370       2.81870110       0.00000000
Si       2.33728920       0.44232237       2.79471054       0.00000000
Si      -2.69653257      -2.70518975       0.02226462       0.00000000
Si      -2.70288567      -0.00118103      -2.70358093       0.00000000
Si      -2.69990460       2.70915732       0.03969661       0.00000000
