10
Lattice="16.28999089631971 0.0 0.0 0.0 16.28999089631971 0.0 0.0 0.0 34.51877397758722" Properties=species:S:1:pos:R:3:initial_magmoms:R:1 pbc="T T T"
Si      -2.02388589       0.68892039      -0.90994991       0.00000000
Si       2.19714633       0.61739100      -0.52258001       0.00000000
Si      -0.39607506      -2.30737261      -0.06845077       0.00000000
Si      -0.04561200       0.78690474       2.28918281       0.00000000
Si      -2.15023113       2.83550256      -0.12934192       0.00000000
Si       3.23714880      -1.27451331       0.80977637       0.00000000
Si       2.02520538       2.98019034      -0.07224783       0.00000000
Si      -3.59697861      -0.95526189      -0.21208347       0.00000000
Si      -2.38519809      -2.65288840      -1.32120681       0.00000000
Si       0.90341082      -1.05573861       3.60652352       0.00000000
