10
Lattice="16.28999089631971 0.0 0.0 0.0 16.28999089631971 0.0 0.0 0.0 34.51877397758722" Properties=species:S:1:pos:R:3:initial_magmoms:R:1 pbc="T T T"
Si       1.35563751       1.16260590       1.53362653       0.00000000
Si       1.74615768      -0.43460158      -1.54385303       0.00000000
Si      -1.61103213       1.10386579      -1.44802886       0.00000000
Si      -1.31919678      -1.50964384       1.43157862       0.00000000
Si      -2.56422519      -1.11050626      -1.70709240       0.00000000
Si       2.97962019       2.11091359       0.12216201       0.00000000
Si      -0.13207932       2.40603952       2.87747077       0.00000000
Si      -3.02228370       2.41636738       0.02920290       0.00000000
Si       2.58496236      -0.33978040       2.88436762       0.00000000
Si      -2.30163039      -3.16966000       0.06023529       0.00000000
