10
Lattice="16.28999089631971 0.0 0.0 0.0 16.28999089631971 0.0 0.0 0.0 34.51877397758722" Properties=species:S:1:pos:R:3:initial_magmoms:R:1 pbc="T T T"
Si      -1.35511623       1.35632169      -1.36311263       0.00000000
Si       1.37570679       1.32950835       1.37029254       0.00000000
Si       1.35913986      -1.36093176      -1.36235321       0.00000000
Si      -1.35223290      -1.36603053       1.37992328       0.00000000
Si       0.05435973       2.72095128       2.69374307       0.00000000
Si      -2.71555929       2.71081890      -0.00055230       0.00000000
Si       2.71292031      -2.71435383      -0.00144979       0.00000000
Si      -2.71019988      -2.71749780       0.00003452       0.00000000
Si       2.71797021       2.71176372      -0.00289958       0.00000000
Si       0.00185706       2.71199178      -2.71970120       0.00000000
