10
Lattice="16.28999089631971 0.0 0.0 0.0 16.28999089631971 0.0 0.0 0.0 34.51877397758722" Properties=species:S:1:pos:R:3:initial_magmoms:R:1 pbc="T T T"
Si       0.07690509       0.59851089      -2.21192975       0.00000000
Si       1.97245836       0.26606457       1.15064945       0.00000000
Si      -1.78033410       1.26715023       0.71968232       0.00000000
Si      -0.51929262      -2.11874256       0.99389961       0.00000000
Si      -1.79957259      -0.95917149      -2.55114594       0.00000000
Si      -2.77606035       0.93786417      -1.49397337       0.00000000
Si       2.92824153      -1.65833829       0.03451879       0.00000000
Si      -0.94050315      -1.30163616       3.15715787       0.00000000
Si       1.18332189      -0.30926565       3.33430832       0.00000000
Si      -2.78770770      -0.04277754       2.40737516       0.00000000
