10
Lattice="16.28999089631971 0.0 0.0 0.0 16.28999089631971 0.0 0.0 0.0 34.51877397758722" Properties=species:S:1:pos:R:3:initial_magmoms:R:1 pbc="T T T"
Si       1.39924584      -1.30077279       1.32690241       0.00000000
Si       1.35122292       1.34602641      -1.36190447       0.00000000
Si      -1.36319607      -1.36857177      -1.35886682       0.00000000
Si      -1.24642935       1.47978360       1.39476636       0.00000000
Si      -0.33386355      -2.38703886       2.61780173       0.00000000
Si       2.70576900       2.71010214       0.00935459       0.00000000
Si      -2.70995553       2.71153566       0.00535041       0.00000000
Si      -0.00148239       2.70282051      -2.72184137       0.00000000
Si       2.71280628      -0.01304829      -2.71856208       0.00000000
Si      -2.71635750      -0.01238040      -2.71928698       0.00000000
