10
Lattice="16.28999089631971 0.0 0.0 0.0 16.28999089631971 0.0 0.0 0.0 34.51877397758722" Properties=species:S:1:pos:R:3:initial_magmoms:R:1 pbc="T T T"
Si       2.14492059       0.72055557      -0.49313548       0.00000000
Si      -0.13849758      -0.51609978       2.28407403       0.00000000
Si      -1.80134820       1.48260177      -0.40683850       0.00000000
Si      -0.65415753      -2.12038785      -0.87491333       0.00000000
Si      -2.31614478      -1.41639921       1.78489776       0.00000000
Si      -3.59569984      -0.00842193       0.18484814       0.00000000
Si       2.22506739       2.78454744       0.70314782       0.00000000
Si      -1.66201983       2.07572067      -2.73147211       0.00000000
Si       2.27216178       1.35215145      -2.78218022       0.00000000
Si      -1.66153113      -3.43031562       0.81277951       0.00000000
