10
Lattice="16.28999089631971 0.0 0.0 0.0 16.28999089631971 0.0 0.0 0.0 34.51877397758722" Properties=species:S:1:pos:R:3:initial_magmoms:R:1 pbc="T T T"
Si      -1.60072056       1.92459834       0.13596953       0.00000000
Si       1.97055243       0.78094260       1.33985528       0.00000000
Si      -0.86408676      -1.90521324       1.48577313       0.00000000
Si       0.73827909       1.09208160      -2.31117128       0.00000000
Si      -0.93669129      -2.22239583      -2.70761963       0.00000000
Si       0.59373792       2.07300024       2.94695710       0.00000000
Si      -2.16199251      -0.63861687       2.96096828       0.00000000
Si       0.90381807      -0.92330091      -3.52699222       0.00000000
Si      -3.33482201       0.94040541       1.51206264       0.00000000
Si      -0.61828695       3.58461450       1.50731285       0.00000000
