10
Lattice="16.28999089631971 0.0 0.0 0.0 16.28999089631971 0.0 0.0 0.0 34.51877397758722" Properties=species:S:1:pos:R:3:initial_magmoms:R:1 pbc="T T T"
Si       1.37269314      -1.32009273       1.31198339       0.00000000
Si      -1.36409202       1.40817276       1.29033320       0.00000000
Si       1.35452979       1.23263172      -1.50637049       0.00000000
Si      -0.95907375      -1.60213779      -1.47423350       0.00000000
Si      -1.90809657       0.24050556      -2.79157420       0.00000000
Si      -2.58305643      -2.55044548      -0.06276897       0.00000000
Si      -0.39527685       2.26751913      -2.81062858       0.00000000
Si       0.01246185      -2.67985975       2.65830263       0.00000000
Si      -2.71140534       0.04075758       2.65964886       0.00000000
Si       2.63031372      -2.74985951      -0.05922735       0.00000000
