10
Lattice="16.28999089631971 0.0 0.0 0.0 16.28999089631971 0.0 0.0 0.0 34.51877397758722" Properties=species:S:1:pos:R:3:initial_magmoms:R:1 pbc="T T T"
Si      -2.00287179      -1.28004214       0.33952685       0.00000000
Si       0.12357594       1.28866932       2.04109625       0.00000000
Si       1.77328053      -1.63744799       0.14335655       0.00000000
Si       0.73396224       1.76917545      -1.49735621       0.00000000
Si      -1.62455283      -1.83377182       2.64724626       0.00000000
Si       2.99810934      -0.54014382       2.07281902       0.00000000
Si       2.38379715       1.70994501       2.29139202       0.00000000
Si       3.09666384       1.48025601      -1.45085940       0.00000000
Si      -0.18207333       3.71835540      -0.47059471       0.00000000
Si       0.92338236      -3.34900313      -1.57567936       0.00000000
