10
Lattice="16.28999089631971 0.0 0.0 0.0 16.28999089631971 0.0 0.0 0.0 34.51877397758722" Properties=species:S:1:pos:R:3:initial_magmoms:R:1 pbc="T T T"
Si       0.15852125       0.85444308      -2.18148418       0.00000000
Si      -0.79288547       1.91990682       1.12016936       0.00000000
Si       1.97143698      -0.89943606       1.11022795       0.00000000
Si      -1.52986136      -1.92037923      -0.12081578       0.00000000
Si       1.81259319       2.36771892      -1.30474135       0.00000000
Si      -2.01740477       0.38727846       2.65436200       0.00000000
Si       0.75520440      -2.30214678       2.56964943       0.00000000
Si      -3.28113410      -1.04474286       1.24136484       0.00000000
Si       1.43049495      -0.47780199      -3.60276097       0.00000000
Si      -0.50163231      -3.74962310       1.08716939       0.00000000
