10
Lattice="16.28999089631971 0.0 0.0 0.0 16.28999089631971 0.0 0.0 0.0 34.51877397758722" Properties=species:S:1:pos:R:3:initial_magmoms:R:1 pbc="T T T"
Si      -2.19204756      -0.35109837       0.69047942       0.00000000
Si       0.60955551       0.29375757      -2.23844019       0.00000000
Si       0.91520478      -2.13592851       0.27325077       0.00000000
Si       0.20616624       2.06008227       1.19638686       0.00000000
Si      -1.55828511       0.37870992      -3.11822067       0.00000000
Si      -1.99651869      -0.43750053       3.01701157       0.00000000
Si       3.17542599      -1.71465282       0.52354654       0.00000000
Si      -0.62035578       1.44076905       3.32440142       0.00000000
Si      -3.30320475       1.72778256       0.18156885       0.00000000
Si       2.39927265       2.42007498       1.86767383       0.00000000
