10
Lattice="16.28999089631971 0.0 0.0 0.0 16.28999089631971 0.0 0.0 0.0 34.51877397758722" Properties=species:S:1:pos:R:3:initial_magmoms:R:1 pbc="T T T"
Si      -0.21102066       0.83719197       2.21369021       0.00000000
Si       1.72564857       0.99662220      -1.30795160       0.00000000
Si      -2.02123062       1.06591986      -0.67867399       0.00000000
Si       0.18585261      -2.39428791      -0.30072773       0.00000000
Si       0.93388941      -0.27334620      -3.36295892       0.00000000
Si      -3.47302800      -0.05779692       0.82972823       0.00000000
Si       1.93331349       0.35517087       3.04417786       0.00000000
Si      -2.22321033      -0.32985621       2.85977847       0.00000000
Si       0.08879679      -2.50817130      -2.68242091       0.00000000
Si      -1.69306857       3.41306451      -0.00214017       0.00000000
