10
Lattice="16.28999089631971 0.0 0.0 0.0 16.28999089631971 0.0 0.0 0.0 34.51877397758722" Properties=species:S:1:pos:R:3:initial_magmoms:R:1 pbc="T T T"
Si      -2.25425907      -0.27447021       0.56369189       0.00000000
Si       0.52243659      -1.80152739      -1.43325482       0.00000000
Si       0.03111390       2.20753935      -0.84833386       0.00000000
Si       1.57799601      -0.93333555       1.57875153       0.00000000
Si      -1.73156184      -1.22253192       2.68897948       0.00000000
Si       2.21304537      -2.67032196       0.10352186       0.00000000
Si      -0.94032396       1.96682202      -2.97444990       0.00000000
Si      -1.48467060       3.38993271       0.62810396       0.00000000
Si       2.61412146       0.93884157       2.54513967       0.00000000
Si       2.29252428       2.86282089      -1.08578864       0.00000000
