10
Lattice="16.28999089631971 0.0 0.0 0.0 16.28999089631971 0.0 0.0 0.0 34.51877397758722" Properties=species:S:1:pos:R:3:initial_magmoms:R:1 pbc="T T T"
Si      -0.88268994      -1.54394991      -1.61657174       0.00000000
Si      -1.27045710       1.42915137       1.49782912       0.00000000
Si       1.45178109      -1.26527688       1.48279274       0.00000000
Si       0.99026910       1.85567928      -1.23752087       0.00000000
Si      -2.58577686      -2.54438397      -0.12241745       0.00000000
Si      -2.10926178       1.33433019      -2.93039153       0.00000000
Si       2.71358820       2.73212363       0.15062966       0.00000000
Si      -2.49978195       2.93153767       0.14708803       0.00000000
Si       2.25443826       0.95768910      -3.02110692       0.00000000
Si       0.08990451      -2.62816344       2.86674436       0.00000000
