10
Lattice="16.28999089631971 0.0 0.0 0.0 16.28999089631971 0.0 0.0 0.0 34.51877397758722" Properties=species:S:1:pos:R:3:initial_magmoms:R:1 pbc="T T T"
Si      -1.35990549       1.35286821      -1.35482812       0.00000000
Si       1.35668007       1.35470898       1.35772770       0.00000000
Si      -1.35840681      -1.36028016       1.35727895       0.00000000
Si       1.35619137      -1.36295172      -1.36183543       0.00000000
Si      -0.00417024       2.69436309      -2.73075067       0.00000000
Si      -2.71485882       2.71101100       0.00120816       0.00000000
Si       2.71409319       2.71239903       0.00062134       0.00000000
Si      -0.00104256       2.71252652       2.71452338       0.00000000
Si       2.71451673      -0.00316026       2.71459242       0.00000000
Si      -2.71611315      -0.00236205       2.71500665       0.00000000
