10
Lattice="16.28999089631971 0.0 0.0 0.0 16.28999089631971 0.0 0.0 0.0 34.51877397758722" Properties=species:S:1:pos:R:3:initial_magmoms:R:1 pbc="T T T"
Si      -1.35646993      -1.35620766       1.35762414       0.00000000
Si      -1.35741149       1.35733167      -1.35741703       0.00000000
Si       1.35755973      -1.35731538      -1.35765866       0.00000000
Si       1.35839052       1.35910728       1.35676117       0.00000000
Si      -2.71379565       0.00001629      -2.71521376       0.00000000
Si       0.00042354       2.71490769      -2.71421271       0.00000000
Si      -2.71494677       2.71425609       0.00041423       0.00000000
Si      -2.71504447      -2.71437012       0.00031067       0.00000000
Si       0.00078192      -2.71482624      -2.71462694       0.00000000
Si       2.71549413      -0.00003258      -2.71407464       0.00000000
