10
Lattice="16.28999089631971 0.0 0.0 0.0 16.28999089631971 0.0 0.0 0.0 34.51877397758722" Properties=species:S:1:pos:R:3:initial_magmoms:R:1 pbc="T T T"
Si       1.94155623      -0.14413392       1.29348822       0.00000000
Si      -1.55532033      -1.78839765       0.23438261       0.00000000
Si      -0.95327451       1.97179766      -0.96970194       0.00000000
Si       2.00482659      -1.15015545      -0.90097502       0.00000000
Si      -1.87716186       0.32407507      -2.40961888       0.00000000
Si       0.71148204      -2.55288735      -2.28976963       0.00000000
Si      -3.33382995      -0.72374841      -0.94571138       0.00000000
Si       0.74471364       2.85395003      -2.32228634       0.00000000
Si      -0.57137175      -1.17714798      -3.73814368       0.00000000
Si      -2.64730419      -1.71033597       2.46188034       0.00000000
