10
Lattice="16.28999089631971 0.0 0.0 0.0 16.28999089631971 0.0 0.0 0.0 34.51877397758722" Properties=species:S:1:pos:R:3:initial_magmoms:R:1 pbc="T T T"
Si       0.88268994       1.54394991       1.61657174       0.00000000
Si      -0.78812649       0.60334902      -2.23201969       0.00000000
Si      -1.70308692      -1.00043406       1.49415429       0.00000000
Si       1.85041368      -1.53396414      -1.18893080       0.00000000
Si      -1.22657184       2.87828010      -1.31381979       0.00000000
Si      -2.93536026      -0.68929506      -2.15687228       0.00000000
Si       3.02194161       0.27507294      -2.27409810       0.00000000
Si       2.33447103       0.27867303       3.09936447       0.00000000
Si       1.87295904       3.39962919       0.37905087       0.00000000
Si      -0.38291274      -2.43893880       3.08517035       0.00000000
