10
Lattice="16.28999089631971 0.0 0.0 0.0 16.28999089631971 0.0 0.0 0.0 34.51877397758722" Properties=species:S:1:pos:R:3:initial_magmoms:R:1 pbc="T T T"
Si       1.35646993       1.35620766      -1.35762414       0.00000000
Si      -1.35857454      -1.35816246      -1.35731347       0.00000000
Si      -1.36313617       1.35956340       1.35741703       0.00000000
Si       1.35977680      -1.35850455       1.36228418       0.00000000
Si      -2.71760110       2.71077003      -0.00120816       0.00000000
Si      -0.00094156       2.71353933      -2.71504117       0.00000000
Si       2.71402966      -0.00110772      -2.71528280       0.00000000
Si       2.71486045       2.71531494      -0.00086297       0.00000000
Si      -2.71533679      -0.00148239      -2.71486857       0.00000000
Si      -0.00080147      -2.71611152      -2.71507568       0.00000000
