10
Lattice="16.28999089631971 0.0 0.0 0.0 16.28999089631971 0.0 0.0 0.0 34.51877397758722" Properties=species:S:1:pos:R:3:initial_magmoms:R:1 pbc="T T T"
Si      -1.35446493       1.35120663      -1.35862518       0.00000000
Si       1.36313617      -1.35956340      -1.35741703       0.00000000
Si      -1.35777180      -1.36262592       1.36004045       0.00000000
Si       1.35713005       1.36919079       1.37733437       0.00000000
Si       2.52080294      -0.13714551       2.74545222       0.00000000
Si      -2.70676299       2.71155195       0.00176046       0.00000000
Si      -2.70984180      -0.00363267      -2.71531732       0.00000000
Si       0.00465933       2.71090035      -2.71462694       0.00000000
Si      -2.70992325      -2.71564074       0.00255439       0.00000000
Si       2.71755356       2.71024875       0.00428033       0.00000000
