10
Lattice="16.28999089631971 0.0 0.0 0.0 16.28999089631971 0.0 0.0 0.0 34.51877397758722" Properties=species:S:1:pos:R:3:initial_magmoms:R:1 pbc="T T T"
Si       0.42961617       1.15556373       1.98407120       0.00000000
Si       1.31683473       1.34877942      -1.39659586       0.00000000
Si       0.26829630      -2.35638271      -0.11974569       0.00000000
Si      -2.36270160       0.28891944      -0.04649681       0.00000000
Si      -2.42046594       0.96932016      -2.33233130       0.00000000
Si      -0.40242816       2.33632809      -2.62011448       0.00000000
Si      -3.09666384      -1.48025601       1.45085940       0.00000000
Si       0.20382048       3.45660768       1.39369628       0.00000000
Si      -1.32338331      -3.11770400       1.59421595       0.00000000
Si      -0.03085326      -2.86558856      -2.44748600       0.00000000
