10
Lattice="16.28999089631971 0.0 0.0 0.0 16.28999089631971 0.0 0.0 0.0 34.51877397758722" Properties=species:S:1:pos:R:3:initial_magmoms:R:1 pbc="T T T"
Si       0.18735129      -2.34959045      -0.15184817       0.00000000
Si       1.07774640       0.43621851      -2.10088280       0.00000000
Si       1.09573056       1.44553062       1.57561032       0.00000000
Si      -2.24609778       0.78804993      -0.35685528       0.00000000
Si       0.46343421       2.68630734      -1.88230980       0.00000000
Si      -1.79678700       2.26503165      -2.13260557       0.00000000
Si       0.05989833      -2.60632085      -2.50640958       0.00000000
Si       1.20313053       3.40795434       0.22002279       0.00000000
Si       3.60391719      -0.99137912       0.28046520       0.00000000
Si      -0.35847774       1.33158207       3.49482071       0.00000000
