10
Lattice="16.28999089631971 0.0 0.0 0.0 16.28999089631971 0.0 0.0 0.0 34.51877397758722" Properties=species:S:1:pos:R:3:initial_magmoms:R:1 pbc="T T T"
Si      -1.37191122       1.23740469       1.49989680       0.00000000
Si       1.31373963      -1.42713432       1.48296533       0.00000000
Si      -1.39895262      -1.60842573      -1.32022100       0.00000000
Si       0.91072503       1.91752848      -1.45895203       0.00000000
Si      -2.64096738       2.54760939       0.06241343       0.00000000
Si      -0.88161480       3.57539436      -1.08203127       0.00000000
Si       2.58668910      -2.85102693       0.16309094       0.00000000
Si       2.72904741       2.72790711      -0.07870285       0.00000000
Si      -0.03049488       2.62822860       2.84738622       0.00000000
Si       2.68187157      -0.08956242       2.84427953       0.00000000
