10
Lattice="16.28999089631971 0.0 0.0 0.0 16.28999089631971 0.0 0.0 0.0 34.51877397758722" Properties=species:S:1:pos:R:3:initial_magmoms:R:1 pbc="T T T"
Si       1.35537687       1.35483930       1.35669213       0.00000000
Si       1.35764118      -1.35741312      -1.35696828       0.00000000
Si      -1.35795069       1.35786924      -1.35724443       0.00000000
Si      -1.35765747      -1.35843939       1.35717539       0.00000000
Si       2.70984180       0.00363267       2.71531732       0.00000000
Si      -0.00141723      -2.71417464      -2.71421271       0.00000000
Si       2.71440343      -2.71409319       0.00058682       0.00000000
Si       2.71450113       2.71453302       0.00069038       0.00000000
Si      -2.71586880      -0.00140094      -2.71324619       0.00000000
Si      -0.00055386       2.71498914      -2.71452338       0.00000000
