10
Lattice="16.28999089631971 0.0 0.0 0.0 16.28999089631971 0.0 0.0 0.0 34.51877397758722" Properties=species:S:1:pos:R:3:initial_magmoms:R:1 pbc="T T T"
Si       1.35739683       1.35711990      -1.35727895       0.00000000
Si      -1.35710361       1.35742941       1.35790029       0.00000000
Si       1.35795069      -1.35786924       1.35724443       0.00000000
Si      -1.35791811      -1.35927018      -1.35600176       0.00000000
Si      -0.00188964      -2.71352304      -2.71331523       0.00000000
Si       2.71332756      -0.00302994       2.71393656       0.00000000
Si      -2.71365336      -0.00029322      -2.71404012       0.00000000
Si      -2.71393029       0.00053757       2.71493761       0.00000000
Si      -2.71420722       2.71472850       0.00020711       0.00000000
Si       0.00048870       2.71498914       2.71490309       0.00000000
