10
Lattice="16.28999089631971 0.0 0.0 0.0 16.28999089631971 0.0 0.0 0.0 34.51877397758722" Properties=species:S:1:pos:R:3:initial_magmoms:R:1 pbc="T T T"
Si       1.31455413      -1.36971207      -1.39811468       0.00000000
Si      -1.41020901       1.36642149      -1.36684066       0.00000000
Si       1.83055617       0.74868840       1.37636784       0.00000000
Si      -1.03526208      -1.80185319       1.31292230       0.00000000
Si       0.23188815       0.25065423       3.22978541       0.00000000
Si       2.52664416      -2.78184330       0.05978655       0.00000000
Si       2.67232593      -0.00708615      -2.75815514       0.00000000
Si      -0.03443706       2.70446580      -2.75639468       0.00000000
Si      -0.03759732      -2.72272689      -2.75560075       0.00000000
Si      -2.75462271      -0.01106091      -2.75422000       0.00000000
