10
Lattice="16.28999089631971 0.0 0.0 0.0 16.28999089631971 0.0 0.0 0.0 34.51877397758722" Properties=species:S:1:pos:R:3:initial_magmoms:R:1 pbc="T T T"
Si       1.75246191      -0.05155785       1.53895136       0.00000000
Si       0.97687872       0.25884810      -2.11627818       0.00000000
Si      -1.58319252       1.42428357       1.02969560       0.00000000
Si      -0.33365178      -2.26075878      -0.77449816       0.00000000
Si      -1.16745543       0.74086920      -2.94676582       0.00000000
Si       1.50001578      -2.05793199      -2.30706355       0.00000000
Si       2.05698717      -2.37097692       1.51375264       0.00000000
Si      -0.80135397       1.38041460       3.26917135       0.00000000
Si       0.25788699      -3.74308362       0.95375426       0.00000000
Si      -2.52675819      -2.62075149      -1.44578514       0.00000000
