10
Lattice="16.28999089631971 0.0 0.0 0.0 16.28999089631971 0.0 0.0 0.0 34.51877397758722" Properties=species:S:1:pos:R:3:initial_magmoms:R:1 pbc="T T T"
Si      -0.97256187      -1.78158843      -1.14475192       0.00000000
Si       1.25345034      -1.37617920       1.41885012       0.00000000
Si      -1.47592287       1.34469063       1.39636458       0.00000000
Si       1.77761367       0.80055576      -1.47548653       0.00000000
Si      -1.95998022      -0.46794654      -2.89193069       0.00000000
Si       2.52613917       2.61498483      -0.09630398       0.00000000
Si       2.63810034      -2.62907568      -0.14142350       0.00000000
Si       2.59393815      -0.02083491       2.78356097       0.00000000
Si       0.81977796      -3.43945431      -1.52167267       0.00000000
Si      -0.12043197       2.69974170       2.78287059       0.00000000
