10
Lattice="16.28999089631971 0.0 0.0 0.0 16.28999089631971 0.0 0.0 0.0 34.51877397758722" Properties=species:S:1:pos:R:3:initial_magmoms:R:1 pbc="T T T"
Si      -1.35589815      -1.35718506      -1.35658858       0.00000000
Si      -1.35490446       1.35895806       1.35865970       0.00000000
Si       1.35873261       1.35785970      -1.35638146       0.00000000
Si       1.35957969      -1.35765747       1.36021305       0.00000000
Si      -0.00988803      -2.69288361       2.72643237       0.00000000
Si      -2.71373481       0.00068418      -2.71345330       0.00000000
Si      -2.71450044       2.71345203       0.00196757       0.00000000
Si      -2.71406061      -2.71404432       0.00217468       0.00000000
Si       0.00182448      -2.71528236      -2.71359138       0.00000000
Si       0.00092853       2.71564956      -2.71338426       0.00000000
