10
Lattice="16.28999089631971 0.0 0.0 0.0 16.28999089631971 0.0 0.0 0.0 34.51877397758722" Properties=species:S:1:pos:R:3:initial_magmoms:R:1 pbc="T T T"
Si      -1.36946772      -1.33522614       1.36621932       0.00000000
Si       1.35612621      -1.35684297      -1.35883230       0.00000000
Si      -1.35957969       1.35765747      -1.36021305       0.00000000
Si       1.35754344       1.35073422       1.39594000       0.00000000
Si       2.71396927      -2.71248048       0.00186401       0.00000000
Si      -2.71277370      -2.71480995       0.00110460       0.00000000
Si       2.71457234       0.00037467      -2.71618029       0.00000000
Si       2.71699281       2.71391355       0.00310669       0.00000000
Si      -0.00043983      -2.71451673      -2.71645644       0.00000000
Si      -2.71448415       2.71661553      -0.00155335       0.00000000
