10
Lattice="16.28999089631971 0.0 0.0 0.0 16.28999089631971 0.0 0.0 0.0 34.51877397758722" Properties=species:S:1:pos:R:3:initial_magmoms:R:1 pbc="T T T"
Si      -1.26832311       1.36304036      -1.43166695       0.00000000
Si       0.79563618       1.81306790       1.30805515       0.00000000
Si      -1.39525479      -1.31108436       1.41281969       0.00000000
Si       1.46676789      -1.35410625      -1.39828728       0.00000000
Si       0.74969838       0.50012811       3.36489197       0.00000000
Si       2.67287949       2.66954723       0.02226462       0.00000000
Si      -2.65536774       2.69302112      -0.00849162       0.00000000
Si      -2.68859934      -2.71381626       0.02402508       0.00000000
Si      -2.60525970       0.01177506      -2.79578062       0.00000000
Si       0.10922445      -2.70484047      -2.79422728       0.00000000
