10
Lattice="16.28999089631971 0.0 0.0 0.0 16.28999089631971 0.0 0.0 0.0 34.51877397758722" Properties=species:S:1:pos:R:3:initial_magmoms:R:1 pbc="T T T"
Si      -1.87203051       1.52436933      -0.00942363       0.00000000
Si       1.04111019       0.33444999       2.17209507       0.00000000
Si       1.31949000       1.34850249      -1.54292102       0.00000000
Si      -0.08490348      -2.41088742      -0.49213444       0.00000000
Si      -0.81515160       1.29068928       3.23354796       0.00000000
Si      -3.50362062       0.00555489       0.81367699       0.00000000
Si       2.54969518       2.69182476       0.14069860       0.00000000
Si       2.31163245      -2.91845124      -0.20207302       0.00000000
Si      -1.02213234       3.23592446       1.70961227       0.00000000
Si      -1.93782582       2.68284897      -2.08969871       0.00000000
