10
Lattice="16.28999089631971 0.0 0.0 0.0 16.28999089631971 0.0 0.0 0.0 34.51877397758722" Properties=species:S:1:pos:R:3:initial_magmoms:R:1 pbc="T T T"
Si       2.00380032       1.07986410       0.41394937       0.00000000
Si      -0.18733500      -2.31137181       0.57370234       0.00000000
Si      -1.64296053       1.54285848       0.80100860       0.00000000
Si       0.53012547      -0.02249649      -2.37002583       0.00000000
Si      -1.59677838      -1.94429295       2.48808010       0.00000000
Si       1.58258979       1.89697050       2.57720762       0.00000000
Si      -2.79834181       0.12906567       2.28134705       0.00000000
Si      -0.26461476       3.15582912       1.82742492       0.00000000
Si       3.68137710      -0.36962010      -0.53645657       0.00000000
Si      -1.21011894      -3.36535110      -1.34609486       0.00000000
