10
Lattice="16.28999089631971 0.0 0.0 0.0 16.28999089631971 0.0 0.0 0.0 34.51877397758722" Properties=species:S:1:pos:R:3:initial_magmoms:R:1 pbc="T T T"
Si       1.80463715       0.84159027      -1.37160425       0.00000000
Si      -1.98603675       1.36300059      -0.27735850       0.00000000
Si      -0.93407675      -1.92492414      -1.28641187       0.00000000
Si       0.16966198       1.47118248       2.21942033       0.00000000
Si      -0.24810973      -1.69306857       3.08635982       0.00000000
Si       0.35562210       2.09551302      -2.86906402       0.00000000
Si      -0.62843073       3.41288532       1.09935453       0.00000000
Si      -1.08194175       3.23758863      -1.39901217       0.00000000
Si       3.43256201      -0.48438315       1.32372668       0.00000000
Si      -2.39162517      -0.62721387      -2.84821467       0.00000000
