10
Lattice="16.28999089631971 0.0 0.0 0.0 16.28999089631971 0.0 0.0 0.0 34.51877397758722" Properties=species:S:1:pos:R:3:initial_magmoms:R:1 pbc="T T T"
Si       1.35726858       1.35759231       1.35638146       0.00000000
Si       1.35719039      -1.35747828      -1.35772770       0.00000000
Si      -1.35735470       1.35769005      -1.35790029       0.00000000
Si      -1.35844613      -1.35721764       1.35734799       0.00000000
Si       2.71010258       0.00195480       2.71576606       0.00000000
Si      -0.00116658      -2.71459818      -2.71407464       0.00000000
Si       2.71440314      -2.71445157       0.00062134       0.00000000
Si       2.71433798       0.00136836      -2.71504117       0.00000000
Si      -2.71501217      -2.71489140      -0.00027615       0.00000000
Si       2.71538054       2.71473691      -0.00017259       0.00000000
