10
Lattice="16.28999089631971 0.0 0.0 0.0 16.28999089631971 0.0 0.0 0.0 34.51877397758722" Properties=species:S:1:pos:R:3:initial_magmoms:R:1 pbc="T T T"
Si       0.79809271      -1.94170284       1.12006580       0.00000000
Si      -1.42126733       1.11358440       1.60674627       0.00000000
Si       2.05124657       1.10213253      -0.68896059       0.00000000
Si      -0.45351101      -0.17529669      -2.49836670       0.00000000
Si      -1.35760601      -2.04988473      -1.37671303       0.00000000
Si       2.68746881      -0.72663174       2.19415258       0.00000000
Si       0.62843073      -3.41288532      -1.09935453       0.00000000
Si       2.94520919       1.62588861       1.58437809       0.00000000
Si       3.58625327      -0.80676225      -1.16870278       0.00000000
Si      -0.19106215       2.45690667       3.29036589       0.00000000
