10
Lattice="10.86 0.0 0.0 0.0 10.86 0.0 0.0 0.0 10.86" Properties=species:S:1:pos:R:3:initial_magmoms:R:1 pbc="T T T"
Si       1.25173446      -1.23010134      -1.46027904       0.00000000
Si      -1.46326554      -1.23010134       1.25472096       0.00000000
Si       1.25173446       1.48489866       1.25472096       0.00000000
Si       2.60923446      -2.58760134      -0.10277904       0.00000000
Si      -0.10576554      -2.58760134       2.61222096       0.00000000
Si       2.60923446       0.12739866       2.61222096       0.00000000
Si      -0.10576554      -2.58760134      -2.81777904       0.00000000
Si      -2.82076554      -2.58760134      -0.10277904       0.00000000
Si       2.60923446       0.12739866      -2.81777904       0.00000000
Si      -2.78666514       0.10400622       2.65788726       0.00000000
