10
Lattice="10.86 0.0 0.0 0.0 10.86 0.0 0.0 0.0 10.86" Properties=species:S:1:pos:R:3:initial_magmoms:R:1 pbc="T T T"
Si       1.37085780       1.35112518       1.31276766       0.00000000
Si      -1.24557684      -1.39256694       1.44853938       0.00000000
Si      -1.34414220       1.35112518      -1.40223234       0.00000000
Si       1.37085780      -1.36387482      -1.40223234       0.00000000
Si      -2.65107804      -2.67831492       0.04540566       0.00000000
Si       2.70658350      -0.01399854       2.67126678       0.00000000
Si       0.01335780       2.70862518       2.67026766       0.00000000
Si      -2.70849486      -0.00673320       2.70062136       0.00000000
Si      -2.70164220       2.70862518      -0.04473234       0.00000000
Si       2.72835780       2.70862518      -0.04473234       0.00000000
