10
Lattice="10.86 0.0 0.0 0.0 10.86 0.0 0.0 0.0 10.86" Properties=species:S:1:pos:R:3:initial_magmoms:R:1 pbc="T T T"
Si      -1.47054174       1.24048350      -1.24339398       0.00000000
Si       1.24445826       1.24048350       1.47160602       0.00000000
Si       1.24445826      -1.47451650      -1.24339398       0.00000000
Si      -0.11304174       2.59798350      -2.60089398       0.00000000
Si       2.60195826       2.59798350       0.11410602       0.00000000
Si       2.60195826      -0.11701650      -2.60089398       0.00000000
Si      -0.13481604       2.59035978       2.83010514       0.00000000
Si      -2.82804174      -0.11701650      -2.60089398       0.00000000
Si       2.60195826      -0.11701650       2.82910602       0.00000000
Si      -0.11304174      -2.83201650      -2.60089398       0.00000000
