10
Lattice="10.86 0.0 0.0 0.0 10.86 0.0 0.0 0.0 10.86" Properties=species:S:1:pos:R:3:initial_magmoms:R:1 pbc="T T T"
Si      -1.31360388       1.33772394      -1.36898988       0.00000000
Si      -1.31360388      -1.37727606       1.34601012       0.00000000
Si       1.40139612       1.33772394       1.34601012       0.00000000
Si       2.71841004      -0.22088154      -2.57037738       0.00000000
Si      -2.67110388       2.69522394      -0.01148988       0.00000000
Si      -2.67110388      -0.01977606       2.70351012       0.00000000
Si       0.03704346       2.69486556      -2.69613618       0.00000000
Si      -2.67110388      -0.01977606      -2.72648988       0.00000000
Si       0.04389612       2.69522394       2.70351012       0.00000000
Si      -2.67110388      -2.73477606      -0.01148988       0.00000000
