10
Lattice="10.86 0.0 0.0 0.0 10.86 0.0 0.0 0.0 10.86" Properties=species:S:1:pos:R:3:initial_magmoms:R:1 pbc="T T T"
Si       1.40379618      -1.45809618      -1.24405644       0.00000000
Si       1.40379618       1.25690382       1.47094356       0.00000000
Si      -1.31120382      -1.45809618       1.47094356       0.00000000
Si      -2.70918990      -0.30170166      -2.44544394       0.00000000
Si       0.02452188       2.60678010      -2.60055732       0.00000000
Si      -2.65113234       2.60851770       0.11335668       0.00000000
Si       2.76129618      -0.10059618      -2.60155644       0.00000000
Si       2.76129618       2.61440382       0.11344356       0.00000000
Si       0.04629618       2.61440382       2.82844356       0.00000000
Si       0.15206172      -2.94299484      -2.49877740       0.00000000
