10
Lattice="10.86 0.0 0.0 0.0 10.86 0.0 0.0 0.0 10.86" Properties=species:S:1:pos:R:3:initial_magmoms:R:1 pbc="T T T"
Si      -1.33572570       1.36512372      -1.35849912       0.00000000
Si       1.37927430      -1.34987628      -1.35849912       0.00000000
Si       1.37927430       1.36512372       1.35650088       0.00000000
Si      -0.02452188      -2.60678010       2.60055732       0.00000000
Si      -2.70658350       0.01399854      -2.67126678       0.00000000
Si      -2.67565422       0.00173760       2.71391400       0.00000000
Si      -2.69322570       2.72262372      -0.00099912       0.00000000
Si       0.13481604      -2.59035978      -2.83010514       0.00000000
Si       0.02177430       2.72262372       2.71400088       0.00000000
Si       0.02177430       2.72262372      -2.71599912       0.00000000
