10
Lattice="10.86 0.0 0.0 0.0 10.86 0.0 0.0 0.0 10.86" Properties=species:S:1:pos:R:3:initial_magmoms:R:1 pbc="T T T"
Si       1.39264296      -1.15852308       1.26977292       0.00000000
Si      -1.32235704      -1.15852308      -1.44522708       0.00000000
Si      -1.32235704       1.55647692       1.26977292       0.00000000
Si       0.03514296      -2.51602308       2.62727292       0.00000000
Si      -2.67985704      -2.51602308      -0.08772708       0.00000000
Si       2.75014296      -2.51602308      -0.08772708       0.00000000
Si      -2.67985704       0.19897692       2.62727292       0.00000000
Si       0.03514296      -2.51602308      -2.80272708       0.00000000
Si       2.62594800       0.25803360      -2.73449370       0.00000000
Si       2.75014296       0.19897692       2.62727292       0.00000000
