10
Lattice="10.86 0.0 0.0 0.0 10.86 0.0 0.0 0.0 10.86" Properties=species:S:1:pos:R:3:initial_magmoms:R:1 pbc="T T T"
Si      -1.39548828      -1.21449552      -1.47489660       0.00000000
Si      -1.39548828       1.50050448       1.24010340       0.00000000
Si       1.31951172       1.50050448      -1.47489660       0.00000000
Si       2.55433716       0.12744210       2.46290682       0.00000000
Si       2.55281676      -2.51293884      -0.04916322       0.00000000
Si      -2.75298828      -2.57199552      -0.11739660       0.00000000
Si      -2.75298828       0.14300448       2.59760340       0.00000000
Si      -0.03798828      -2.57199552      -2.83239660       0.00000000
Si      -0.07313124      -2.77097244       2.68533048       0.00000000
Si      -0.03798828       2.85800448       2.59760340       0.00000000
