10
Lattice="10.86 0.0 0.0 0.0 10.86 0.0 0.0 0.0 10.86" Properties=species:S:1:pos:R:3:initial_magmoms:R:1 pbc="T T T"
Si       1.21550550      -1.34564088      -1.26416916       0.00000000
Si       1.21550550       1.36935912       1.45083084       0.00000000
Si      -1.49949450      -1.34564088       1.45083084       0.00000000
Si      -1.34233944       1.46089806      -1.54294536       0.00000000
Si      -2.69887290       2.39522730      -0.08891082       0.00000000
Si       2.66995272       2.49164238       0.23922408       0.00000000
Si       2.57300550      -2.70314088       0.09333084       0.00000000
Si      -0.14199450      -2.70314088      -2.62166916       0.00000000
Si       2.56686960       0.06076170      -2.75973234       0.00000000
Si       2.57300550       0.01185912       2.80833084       0.00000000
