10
Lattice="10.86 0.0 0.0 0.0 10.86 0.0 0.0 0.0 10.86" Properties=species:S:1:pos:R:3:initial_magmoms:R:1 pbc="T T T"
Si       1.24573974       1.40412198       1.25049642       0.00000000
Si      -1.46926026      -1.31087802       1.25049642       0.00000000
Si       1.07975550      -1.13652072      -1.87873656       0.00000000
Si      -1.46926026       1.40412198      -1.46450358       0.00000000
Si       2.60578098      -0.16436610       2.65908186       0.00000000
Si       2.44753992       0.21494112      -2.88517620       0.00000000
Si       2.60323974       2.76162198      -0.10700358       0.00000000
Si      -0.11176026       2.76162198       2.60799642       0.00000000
Si      -2.82676026       0.04662198       2.60799642       0.00000000
Si       0.04636134      -3.00000984       2.42575476       0.00000000
