10
Lattice="16.28999089631971 0.0 0.0 0.0 16.28999089631971 0.0 0.0 0.0 34.3005442915855" Properties=species:S:1:pos:R:3:initial_magmoms:R:1 pbc="T T T"
Si       1.23947352      -1.41066697       1.40889221       0.00000000
Si      -1.24004367      -1.52747325      -1.39369505       0.00000000
Si      -1.49209884       1.31023565       1.39520286       0.00000000
Si       1.78453692       0.94830443      -1.43735966       0.00000000
Si      -0.93608856       0.68025248      -3.04012209       0.00000000
Si       2.63876823       2.65466564       0.01466006       0.00000000
Si       2.58090615      -0.05243099       2.78114457       0.00000000
Si      -0.13613553       2.67108596       2.78114457       0.00000000
Si       2.84701959      -2.62783017      -0.05928509       0.00000000
Si      -3.00043881       2.48368580      -0.11787389       0.00000000
