10
Lattice="16.28999089631971 0.0 0.0 0.0 16.28999089631971 0.0 0.0 0.0 34.3005442915855" Properties=species:S:1:pos:R:3:initial_magmoms:R:1 pbc="T T T"
Si       1.33177266      -1.42588718       1.32599118       0.00000000
Si       1.36915821       1.34385984      -1.37823094       0.00000000
Si      -1.34993601      -1.36892105      -1.37953436       0.00000000
Si      -1.31875695       1.38451968       1.52891332       0.00000000
Si      -2.70176166       2.70580158       0.00902105       0.00000000
Si       2.74385502       2.68824096       0.00936405       0.00000000
Si      -2.70461241      -2.73242663      -0.01859091       0.00000000
Si       0.00908982       2.70109377      -2.73862559       0.00000000
Si      -2.70466128      -0.01490535      -2.73914010       0.00000000
Si       2.71744893      -2.74317803      -0.02942988       0.00000000
