10
Lattice="16.28999089631971 0.0 0.0 0.0 16.28999089631971 0.0 0.0 0.0 34.3005442915855" Properties=species:S:1:pos:R:3:initial_magmoms:R:1 pbc="T T T"
Si       0.56837439      -2.26587873      -0.31748602       0.00000000
Si      -1.24936155       0.03295467       2.02435065       0.00000000
Si      -0.93483423       1.24670628      -1.82475568       0.00000000
Si       1.95232392       1.08535383       1.56907928       0.00000000
Si      -1.57780053       2.78474292      -0.04205249       0.00000000
Si       0.08977419       1.94939172       2.64371593       0.00000000
Si       2.01049551      -2.08785020      -2.20833888       0.00000000
Si      -0.67489470      -2.14831380       2.87449012       0.00000000
Si       1.15818642      -3.16256408       1.76599881       0.00000000
Si       3.20712633       2.46845628       0.10166687       0.00000000
