10
Lattice="16.28999089631971 0.0 0.0 0.0 16.28999089631971 0.0 0.0 0.0 34.3005442915855" Properties=species:S:1:pos:R:3:initial_magmoms:R:1 pbc="T T T"
Si      -1.35752715      -1.35544203      -1.35816511       0.00000000
Si      -1.35695700       1.35702216       1.35806221       0.00000000
Si       1.35783666      -1.35798327       1.35771920       0.00000000
Si       1.36023129       1.35852084      -1.35669019       0.00000000
Si      -2.71590301       0.00146610      -2.71214555       0.00000000
Si       2.71389771      -0.00026064       2.71444369       0.00000000
Si      -2.71455420       2.71412577       0.00041161       0.00000000
Si       0.00109143       2.71446786       2.71440939       0.00000000
Si      -2.71458678      -2.71529865       0.00034301       0.00000000
Si       0.00014661      -2.71625976       2.71392918       0.00000000
