10
Lattice="16.28999089631971 0.0 0.0 0.0 16.28999089631971 0.0 0.0 0.0 34.3005442915855" Properties=species:S:1:pos:R:3:initial_magmoms:R:1 pbc="T T T"
Si       1.34998488       1.33768593       1.37624151       0.00000000
Si       1.35462753      -1.35856971      -1.35854242       0.00000000
Si      -1.35817875       1.35615879      -1.35857672       0.00000000
Si      -1.35622395      -1.35386190       1.38910422       0.00000000
Si      -0.09547569       2.65844655       2.75248302       0.00000000
Si      -2.71259451       2.71282257       0.00380736       0.00000000
Si       2.71265967       2.71534752       0.00325855       0.00000000
Si       2.71391400      -0.00114030      -2.71519830       0.00000000
Si      -0.00133578       2.71417464      -2.71499250       0.00000000
Si       2.71469592      -2.71580364       0.00185223       0.00000000
