10
Lattice="16.28999089631971 0.0 0.0 0.0 16.28999089631971 0.0 0.0 0.0 34.3005442915855" Properties=species:S:1:pos:R:3:initial_magmoms:R:1 pbc="T T T"
Si      -2.06841786       0.68049846       0.78627182       0.00000000
Si      -0.00664632      -0.81154988      -2.16988795       0.00000000
Si       1.36166481       1.90666305      -0.28253374       0.00000000
Si       0.64731573      -1.31001736       1.85843883       0.00000000
Si       1.95916572      -2.09363057      -2.08132389       0.00000000
Si       1.43899344       2.84446206       1.88519327       0.00000000
Si      -1.15018640      -1.25279711       3.36636020       0.00000000
Si      -3.00318272       2.14751070      -0.77083656       0.00000000
Si      -3.01197932      -1.22641708       1.91942523       0.00000000
Si      -1.82549487       2.07006804       2.62690865       0.00000000
