10
Lattice="16.28999089631971 0.0 0.0 0.0 16.28999089631971 0.0 0.0 0.0 34.3005442915855" Properties=species:S:1:pos:R:3:initial_magmoms:R:1 pbc="T T T"
Si      -0.03319902       2.27765151      -0.48120260       0.00000000
Si       2.26131264      -0.59543208      -1.10636467       0.00000000
Si      -0.79610859      -0.78687216       2.40752225       0.00000000
Si      -2.48632641      -0.95791716      -1.18577048       0.00000000
Si      -1.29775914       0.55625463      -2.61113039       0.00000000
Si      -2.24417556       2.61702108       0.34451486       0.00000000
Si       1.13485914      -2.40178131      -2.47550597       0.00000000
Si       1.36111095      -1.45714050       3.04160246       0.00000000
Si      -3.74749821       0.66738501       0.08400208       0.00000000
Si       3.77468622      -0.12870729       0.74044626       0.00000000
