10
Lattice="16.28999089631971 0.0 0.0 0.0 16.28999089631971 0.0 0.0 0.0 34.3005442915855" Properties=species:S:1:pos:R:3:initial_magmoms:R:1 pbc="T T T"
Si       2.21097654      -0.33936957      -0.82571746       0.00000000
Si      -0.99266373       0.38848392       2.13593039       0.00000000
Si      -1.50332265      -1.94963607      -0.26051278       0.00000000
Si      -0.76483179       1.76206391      -1.59970968       0.00000000
Si      -1.00805778       2.61694682       1.41335472       0.00000000
Si       2.24417556      -2.61702108      -0.34451486       0.00000000
Si      -3.28952767      -0.72198909      -1.31107044       0.00000000
Si      -2.07515052       0.39242610      -3.01402481       0.00000000
Si       0.94641642      -2.06076645      -2.95564525       0.00000000
Si      -2.55080223       2.71296008      -0.35120347       0.00000000
