10
Lattice="16.28999089631971 0.0 0.0 0.0 16.28999089631971 0.0 0.0 0.0 34.3005442915855" Properties=species:S:1:pos:R:3:initial_magmoms:R:1 pbc="T T T"
Si      -0.22141368       2.27804247      -0.27512482       0.00000000
Si       1.71618408      -0.23657967       1.59281527       0.00000000
Si       0.62245719      -1.14663681      -1.97821640       0.00000000
Si      -1.97374527      -1.18415268       0.60729148       0.00000000
Si      -1.10236059       2.76367995       1.87370258       0.00000000
Si       2.51292798      -2.35299276       0.94820478       0.00000000
Si       2.77967673      -1.81690515      -1.34413618       0.00000000
Si      -1.38600207      -3.40065153       0.14461118       0.00000000
Si      -1.81827351       2.64574035      -1.90529340       0.00000000
Si      -0.98575677      -2.90216124      -2.16560037       0.00000000
