10
Lattice="16.28999089631971 0.0 0.0 0.0 16.28999089631971 0.0 0.0 0.0 34.3005442915855" Properties=species:S:1:pos:R:3:initial_magmoms:R:1 pbc="T T T"
Si       0.02060685       2.30308020      -0.35631425       0.00000000
Si      -2.16751482      -0.49544406      -0.75348048       0.00000000
Si       0.61952499      -0.39679182       2.23697985       0.00000000
Si       1.41639921      -1.35374787      -1.32866663       0.00000000
Si       3.33464445      -1.44375012      -0.02881247       0.00000000
Si      -0.37844928       2.45755827      -2.66854954       0.00000000
Si       2.19827034      -2.18448900       1.97557525       0.00000000
Si      -3.41782119       1.48582719      -0.48295193       0.00000000
Si      -2.02419540      -1.07737173      -3.00493516       0.00000000
Si      -2.98286190      -2.32940484       0.39119793       0.00000000
