10
Lattice="16.28999089631971 0.0 0.0 0.0 16.28999089631971 0.0 0.0 0.0 34.3005442915855" Properties=species:S:1:pos:R:3:initial_magmoms:R:1 pbc="T T T"
Si      -1.80631665      -1.18436445      -1.05710907       0.00000000
Si      -0.45362763      -1.17019215       2.08986473       0.00000000
Si       0.36403263       2.41812018       0.55580633       0.00000000
Si       2.09639268      -0.02658528      -1.39198547       0.00000000
Si       0.51504093      -3.01498578       0.90824462       0.00000000
Si       2.74160700       1.84608054      -0.06283863       0.00000000
Si       2.61718398       0.88674615       2.17983511       0.00000000
Si       0.67667031       0.19544742       3.64235423       0.00000000
Si       1.73291391      -3.18886524      -1.10159690       0.00000000
Si      -3.75647400       0.07066602      -1.03426489       0.00000000
