10
Lattice="16.28999089631971 0.0 0.0 0.0 16.28999089631971 0.0 0.0 0.0 34.3005442915855" Properties=species:S:1:pos:R:3:initial_magmoms:R:1 pbc="T T T"
Si       0.12088809      -2.25321651      -0.68004297       0.00000000
Si       1.91216907       1.24282926       0.66645995       0.00000000
Si      -1.04910858      -0.63255699       2.05227131       0.00000000
Si      -1.11136896       1.18917000      -1.77025208       0.00000000
Si      -2.97391869       2.05320789      -0.69561543       0.00000000
Si       0.52048179      -2.16062578       2.95893811       0.00000000
Si       1.21507110       2.90406717       2.21646811       0.00000000
Si       0.24575094      -3.70984292       1.19698676       0.00000000
Si      -1.90550646      -3.05874791      -1.57333255       0.00000000
Si      -2.90918223      -2.03175722       1.70336598       0.00000000
