10
Lattice="16.28999089631971 0.0 0.0 0.0 16.28999089631971 0.0 0.0 0.0 34.3005442915855" Properties=species:S:1:pos:R:3:initial_magmoms:R:1 pbc="T T T"
Si      -0.49339152       0.60748668      -2.21701692       0.00000000
Si       0.85423131       1.70636121       1.45201972       0.00000000
Si      -1.78453692      -0.94830443       1.43735966       0.00000000
Si       2.26253439      -0.54473760      -1.79741813       0.00000000
Si      -2.72062548      -0.26805195      -1.60276243       0.00000000
Si       2.16358893       0.35479620       2.85286160       0.00000000
Si      -0.54506340      -2.35897140       2.84625188       0.00000000
Si       2.34571113       2.97712782       0.06825812       0.00000000
Si      -3.02458059      -2.47577768       0.04366462       0.00000000
Si       1.06248267      -3.57613460       1.37807457       0.00000000
