10
Lattice="16.28999089631971 0.0 0.0 0.0 16.28999089631971 0.0 0.0 0.0 34.3005442915855" Properties=species:S:1:pos:R:3:initial_magmoms:R:1 pbc="T T T"
Si      -1.35681039      -1.35627282      -1.35727330       0.00000000
Si       1.35767376       1.35845568      -1.35727330       0.00000000
Si       1.35943308      -1.35742941       1.35861102       0.00000000
Si      -1.35806472       1.36021500       1.36118356       0.00000000
Si       0.00040725      -2.71360449      -2.71468379       0.00000000
Si      -2.71450044       0.00179190      -2.71451229       0.00000000
Si      -2.71609686      -2.71370223      -0.00061741       0.00000000
Si       2.71647153      -2.71373481      -0.00054881       0.00000000
Si       2.71567332       0.00107514      -2.71482100       0.00000000
Si       0.00019548       2.71642266      -2.71434079       0.00000000
