10
Lattice="16.28999089631971 0.0 0.0 0.0 16.28999089631971 0.0 0.0 0.0 34.3005442915855" Properties=species:S:1:pos:R:3:initial_magmoms:R:1 pbc="T T T"
Si      -0.13172094      -1.72351458      -1.56304238       0.00000000
Si       2.23187661      -0.16804764       0.69935419       0.00000000
Si      -1.51780446      -0.85429647       1.59168335       0.00000000
Si       0.24819444       2.11489812      -1.10691348       0.00000000
Si      -1.58579892       1.08193293       2.86063269       0.00000000
Si       1.82081475       1.16545176      -2.74675482       0.00000000
Si       1.38062637      -3.26249604      -0.54688818       0.00000000
Si       0.44771436      -0.64114182      -3.55316107       0.00000000
Si       3.37374045       0.02695995      -1.40618590       0.00000000
Si      -1.70090406       2.22347097      -2.43424239       0.00000000
