10
Lattice="16.28999089631971 0.0 0.0 0.0 16.28999089631971 0.0 0.0 0.0 34.3005442915855" Properties=species:S:1:pos:R:3:initial_magmoms:R:1 pbc="T T T"
Si       2.09282517       0.78418431       0.66481352       0.00000000
Si      -1.53942129       0.24198795       1.76027062       0.00000000
Si      -0.96529653       1.46225556      -1.61102886       0.00000000
Si       0.48259125      -2.17236924      -0.99365302       0.00000000
Si       1.34239374      -1.09043631      -2.88430008       0.00000000
Si      -0.61498008       0.09602955      -3.46600334       0.00000000
Si       2.92332195      -1.06613163       1.92412441       0.00000000
Si      -3.35013624      -1.12824540       1.06805095       0.00000000
Si      -2.54638764       2.36418399       1.49025658       0.00000000
Si      -3.07871226       2.23761069      -0.82719239       0.00000000
