10
Lattice="16.28999089631971 0.0 0.0 0.0 16.28999089631971 0.0 0.0 0.0 34.3005442915855" Properties=species:S:1:pos:R:3:initial_magmoms:R:1 pbc="T T T"
Si      -0.62613873       2.33269542       0.05577272       0.00000000
Si       1.94173542      -0.66709179       1.28544792       0.00000000
Si       1.11524598      -1.19780370      -1.85531748       0.00000000
Si      -2.23301691      -0.68258358       0.82485995       0.00000000
Si      -2.13951231       1.86597063      -1.79103822       0.00000000
Si      -1.90847124      -3.00648240       1.19506593       0.00000000
Si       1.37430585       3.57282054      -0.32191079       0.00000000
Si       2.77397523      -2.71810053       0.30767605       0.00000000
Si      -1.69047846       2.92661253       2.04290726       0.00000000
Si       1.34991972      -1.34157924       3.48576046       0.00000000
