10
Lattice="16.28999089631971 0.0 0.0 0.0 16.28999089631971 0.0 0.0 0.0 34.3005442915855" Properties=species:S:1:pos:R:3:initial_magmoms:R:1 pbc="T T T"
Si      -1.35016407       1.34325711      -1.43197992       0.00000000
Si       1.36045935      -1.38782655      -1.43300894       0.00000000
Si      -1.70233758      -0.89779077       1.48953627       0.00000000
Si       1.56359565       1.32737436       1.36180097       0.00000000
Si      -2.57812056      -2.68081272       0.03008159       0.00000000
Si       2.63842614      -2.72499120       0.07443222       0.00000000
Si      -2.81761614       2.58479946       0.05693894       0.00000000
Si       0.00845451       2.68752420      -2.80678081       0.00000000
Si      -2.70516627      -0.02386485      -2.80616340       0.00000000
Si       2.72344365      -0.02419065      -2.80482568       0.00000000
