10
Lattice="16.28999089631971 0.0 0.0 0.0 16.28999089631971 0.0 0.0 0.0 34.3005442915855" Properties=species:S:1:pos:R:3:initial_magmoms:R:1 pbc="T T T"
Si      -2.15721954       0.67026834      -0.63408022       0.00000000
Si      -0.26674875      -0.53608761       2.29234096       0.00000000
Si       1.34923554       1.92235032      -0.31402166       0.00000000
Si       0.80669709      -1.68684579      -1.53206897       0.00000000
Si      -1.06349265       1.58032548       2.93695145       0.00000000
Si       3.07349946       1.37963268       1.20916346       0.00000000
Si      -2.77967673       1.81690515       1.34413618       0.00000000
Si       2.41357527       1.32843321      -2.30115620       0.00000000
Si      -1.36111095       1.45714050      -3.04160246       0.00000000
Si      -2.04807654      -2.04755526       2.64553386       0.00000000
