10
Lattice="16.28999089631971 0.0 0.0 0.0 16.28999089631971 0.0 0.0 0.0 34.3005442915855" Properties=species:S:1:pos:R:3:initial_magmoms:R:1 pbc="T T T"
Si      -1.94909850       0.10857285      -1.32732890       0.00000000
Si      -0.24819444      -2.11489812       1.10691348       0.00000000
Si       1.57262031      -0.94944636      -1.63984134       0.00000000
Si       0.65466252       1.82856879       1.53639084       0.00000000
Si       1.98368217      -2.28294576       1.80626767       0.00000000
Si       0.19951992      -2.75603994      -2.44624758       0.00000000
Si       3.12554601      -2.08793817      -0.29927242       0.00000000
Si      -3.77866098      -0.22001274       0.12488835       0.00000000
Si       0.39871404       3.77504460       0.09827111       0.00000000
Si      -1.71277947      -1.52682912      -3.05364196       0.00000000
