10
Lattice="16.28999089631971 0.0 0.0 0.0 16.28999089631971 0.0 0.0 0.0 34.3005442915855" Properties=species:S:1:pos:R:3:initial_magmoms:R:1 pbc="T T T"
Si      -1.34434854      -1.34710155      -1.35367174       0.00000000
Si       1.33134912      -1.32695082       1.38955013       0.00000000
Si      -1.38567627       1.31729085       1.35542107       0.00000000
Si       1.36194174       1.37201107      -1.34643432       0.00000000
Si       2.29526100       0.51031683       2.47845581       0.00000000
Si       0.47423448       2.12916557       2.67283711       0.00000000
Si      -0.33632334      -2.35678833       2.88484889       0.00000000
Si       0.00887805      -2.69819415      -2.70977881       0.00000000
Si      -2.70135441      -2.70817992       0.02373599       0.00000000
Si      -2.70707220       0.01210347      -2.70669176       0.00000000
