10
Lattice="16.28999089631971 0.0 0.0 0.0 16.28999089631971 0.0 0.0 0.0 34.3005442915855" Properties=species:S:1:pos:R:3:initial_magmoms:R:1 pbc="T T T"
Si       1.62162063       1.08317749      -1.34612016       0.00000000
Si       1.18587942      -1.44971768       1.45213493       0.00000000
Si      -0.62379297      -1.90327540      -1.34955022       0.00000000
Si      -1.50822594       1.24236337       1.43402424       0.00000000
Si      -0.08423559       2.24739121      -2.71124829       0.00000000
Si      -1.40928048       0.34282957      -3.21625549       0.00000000
Si       3.24410463      -0.97334379      -1.32896988       0.00000000
Si       2.47814883      -2.78853916       0.07968021       0.00000000
Si      -2.60933220      -2.68856743      -0.04076279       0.00000000
Si       2.55091626      -0.10974247       2.79994128       0.00000000
