10
Lattice="16.28999089631971 0.0 0.0 0.0 16.28999089631971 0.0 0.0 0.0 34.3005442915855" Properties=species:S:1:pos:R:3:initial_magmoms:R:1 pbc="T T T"
Si      -1.35132066      -1.33575719       1.35946853       0.00000000
Si      -1.35448092       1.35552348      -1.35672449       0.00000000
Si       1.35865116      -1.35991689      -1.35665589       0.00000000
Si       1.34069958       1.36793646       1.37329166       0.00000000
Si       0.03103245      -2.55929176       2.76726656       0.00000000
Si       2.68296300      -0.00421911       2.71471810       0.00000000
Si      -2.71151937       2.71182888       0.00243534       0.00000000
Si       0.00206883       2.71272483      -2.71348327       0.00000000
Si      -2.71275741      -0.00187335      -2.71351758       0.00000000
Si       2.71683725      -0.00234576      -2.71372338       0.00000000
