10
Lattice="16.28999089631971 0.0 0.0 0.0 16.28999089631971 0.0 0.0 0.0 34.3005442915855" Properties=species:S:1:pos:R:3:initial_magmoms:R:1 pbc="T T T"
Si      -2.07694242      -0.78632319      -0.60365562       0.00000000
Si       0.85851558       1.40492779      -1.63603398       0.00000000
Si       1.16545176      -1.90716219       0.76521127       0.00000000
Si      -0.44944110       1.65701554       1.66014727       0.00000000
Si       2.07542745      -0.50959518       2.46830285       0.00000000
Si      -2.56010382      -1.94194134       1.35483796       0.00000000
Si       2.08422405       2.86433260      -0.22195895       0.00000000
Si       3.01898890       1.39732036       1.33514943       0.00000000
Si      -0.60580881      -3.22658703       1.70789366       0.00000000
Si      -1.96178841       3.19599700       0.64399308       0.00000000
