10
Lattice="16.28999089631971 0.0 0.0 0.0 16.28999089631971 0.0 0.0 0.0 34.3005442915855" Properties=species:S:1:pos:R:3:initial_magmoms:R:1 pbc="T T T"
Si       0.50503887       0.48779753       2.25948102       0.00000000
Si      -0.22467168      -2.35339742      -0.22250776       0.00000000
Si      -1.75747923       1.53024350      -0.56788013       0.00000000
Si       1.75298319       0.31886209      -1.65946126       0.00000000
Si       0.40141818       2.84147447       1.65277265       0.00000000
Si       0.61763535       3.39240227      -0.68899542       0.00000000
Si      -0.92825307      -2.39812976      -2.41987045       0.00000000
Si      -0.77188536       2.48547281      -2.46761684       0.00000000
Si       0.84300750      -1.07870492      -3.36255284       0.00000000
Si       3.61477611       0.29248206      -0.21252629       0.00000000
