10
Lattice="16.28999089631971 0.0 0.0 0.0 16.28999089631971 0.0 0.0 0.0 34.3005442915855" Properties=species:S:1:pos:R:3:initial_magmoms:R:1 pbc="T T T"
Si       1.29656997       1.56115215      -1.31467200       0.00000000
Si      -1.56359565      -1.32737436      -1.36180097       0.00000000
Si      -1.11524598       1.19780370       1.85531748       0.00000000
Si       1.65872925      -1.52029683       2.16299353       0.00000000
Si       0.82648944       0.53071191       3.14076539       0.00000000
Si       2.46778839      -2.63234997       0.18045526       0.00000000
Si       2.52053541       0.02410920      -2.78764109       0.00000000
Si       2.09054457       3.18946797       0.61569511       0.00000000
Si      -0.20313630      -2.71520091      -2.79480991       0.00000000
Si      -0.19129347       2.72253141      -2.79594183       0.00000000
