10
Lattice="16.28999089631971 0.0 0.0 0.0 16.28999089631971 0.0 0.0 0.0 34.3005442915855" Properties=species:S:1:pos:R:3:initial_magmoms:R:1 pbc="T T T"
Si      -1.48786344       1.16137926      -1.48126983       0.00000000
Si      -1.29656997      -1.56115215       1.31467200       0.00000000
Si       1.22396544      -1.53704295      -1.47296910       0.00000000
Si       0.79397460       1.62831582       1.93036711       0.00000000
Si       2.45794923       2.60651403       0.18316501       0.00000000
Si      -0.13766679       2.51730999      -2.85332667       0.00000000
Si      -2.88365580       2.53245969      -0.11634751       0.00000000
Si       2.58275308      -0.20129553      -2.85497310       0.00000000
Si       2.57629608      -2.93035923      -0.08887276       0.00000000
Si      -2.41181595      -0.36334845       3.16998947       0.00000000
