10
Lattice="16.28999089631971 0.0 0.0 0.0 16.28999089631971 0.0 0.0 0.0 34.3005442915855" Properties=species:S:1:pos:R:3:initial_magmoms:R:1 pbc="T T T"
Si      -1.12537836       0.42855732       2.00579405       0.00000000
Si      -1.75624119      -0.64169568      -1.45159985       0.00000000
Si       1.03596255       1.60085088      -1.43249443       0.00000000
Si       2.13934941      -0.94811058       0.54860321       0.00000000
Si       2.71689507      -1.76324589      -1.61617395       0.00000000
Si       3.40009345       1.04459625       0.84983076       0.00000000
Si      -0.54802818       2.68250688       2.51529462       0.00000000
Si       2.32544637       0.24623964      -2.94892234       0.00000000
Si      -2.23010100       1.33133283      -2.73372061       0.00000000
Si      -0.91396674      -2.39414130      -2.81405253       0.00000000
