10
Lattice="16.28999089631971 0.0 0.0 0.0 16.28999089631971 0.0 0.0 0.0 34.3005442915855" Properties=species:S:1:pos:R:3:initial_magmoms:R:1 pbc="T T T"
Si      -1.35449721       1.35684786       1.35607278       0.00000000
Si       1.35899325      -1.35615879       1.35579837       0.00000000
Si       1.34946360       1.37283500      -1.35202531       0.00000000
Si      -1.34667801      -1.36096434      -1.37247188       0.00000000
Si      -2.44574802       0.13398525      -2.84492303       0.00000000
Si       2.64173301       0.03401352      -2.72448004       0.00000000
Si      -2.71186146       2.70938442      -0.00449337       0.00000000
Si      -2.71340901      -0.00050499       2.71255716       0.00000000
Si       0.00172674       2.71409875       2.71245426       0.00000000
Si       2.71450044       2.71281021      -0.00421897       0.00000000
