10
Lattice="16.28999089631971 0.0 0.0 0.0 16.28999089631971 0.0 0.0 0.0 34.3005442915855" Properties=species:S:1:pos:R:3:initial_magmoms:R:1 pbc="T T T"
Si      -1.51360164      -1.17128358      -1.29047020       0.00000000
Si      -1.29226941       1.33882148       1.37245473       0.00000000
Si       1.43986147      -1.39338144       1.33098534       0.00000000
Si       0.76595580       1.81519537      -1.40865009       0.00000000
Si       1.67336486      -0.21548412      -2.73656211       0.00000000
Si      -3.10194180       0.88526376      -1.42923043       0.00000000
Si       0.08431704      -2.12294538      -2.82039268       0.00000000
Si      -2.47814883       2.78853916      -0.07968021       0.00000000
Si       2.65968200       2.64358097      -0.08525748       0.00000000
Si      -2.64173301      -0.03401352       2.72448004       0.00000000
