10
Lattice="16.28999089631971 0.0 0.0 0.0 16.28999089631971 0.0 0.0 0.0 34.3005442915855" Properties=species:S:1:pos:R:3:initial_magmoms:R:1 pbc="T T T"
Si       0.60316983      -1.22735376       2.12564022       0.00000000
Si      -1.83148470       1.58115627       0.91771158       0.00000000
Si       1.66397463       0.97819821      -1.74720210       0.00000000
Si      -0.79397460      -1.62831582      -1.93036711       0.00000000
Si       2.79806067      -2.28807711       1.29810482       0.00000000
Si      -2.09054457      -3.18946797      -0.61569511       0.00000000
Si      -1.26405513      -2.65875606       2.52507028       0.00000000
Si       3.14967217       2.36477043      -0.41160676       0.00000000
Si      -3.20579055      -1.99166427       1.23962236       0.00000000
Si      -2.71371852       2.74141152      -0.95780893       0.00000000
