10
Lattice="16.28999089631971 0.0 0.0 0.0 16.28999089631971 0.0 0.0 0.0 34.3005442915855" Properties=species:S:1:pos:R:3:initial_magmoms:R:1 pbc="T T T"
Si       0.09319509      -1.56916683       1.74799101       0.00000000
Si      -1.92596670       0.78132446       1.16896320       0.00000000
Si       1.78010604       1.60445816      -0.05762495       0.00000000
Si      -0.39679182      -1.72859706      -2.01752484       0.00000000
Si      -1.80110385      -0.67530195       3.04599294       0.00000000
Si      -1.73731221      -2.91752271       1.87047833       0.00000000
Si       2.69628822       1.96547714       2.12920748       0.00000000
Si      -3.95236125      -0.02420694       0.27567363       0.00000000
Si       1.00326852       3.38572079      -1.81947339       0.00000000
Si      -2.04685479       3.03454097       1.84900617       0.00000000
