10
Lattice="16.28999089631971 0.0 0.0 0.0 16.28999089631971 0.0 0.0 0.0 34.3005442915855" Properties=species:S:1:pos:R:3:initial_magmoms:R:1 pbc="T T T"
Si      -1.40204772      -1.33437906      -1.29179352       0.00000000
Si       1.04098380       1.46601855      -1.49890032       0.00000000
Si       0.96208318      -1.89063369       0.99053167       0.00000000
Si      -1.21477788       1.06670178       1.71331314       0.00000000
Si      -2.43801027      -2.93522994       0.14070091       0.00000000
Si       1.45610187      -1.46427552       3.25505487       0.00000000
Si      -0.11256390      -2.68899030      -2.80822143       0.00000000
Si       3.17504222      -2.26901781       0.35820078       0.00000000
Si      -2.38022964       2.97386397       0.94810187       0.00000000
Si      -2.83760397      -0.25554123      -2.71550701       0.00000000
