10
Lattice="16.28999089631971 0.0 0.0 0.0 16.28999089631971 0.0 0.0 0.0 34.3005442915855" Properties=species:S:1:pos:R:3:initial_magmoms:R:1 pbc="T T T"
Si       0.70358139       0.04473234       2.19736270       0.00000000
Si      -1.95429501       1.28464569      -0.35305570       0.00000000
Si      -0.57735018      -2.25394956      -0.50950057       0.00000000
Si       1.77126057       1.31942484      -0.94268239       0.00000000
Si       0.92825307       2.39812976       2.41987045       0.00000000
Si      -1.47113361       2.44026385      -2.31154927       0.00000000
Si       0.60580881       3.22658703      -1.70789366       0.00000000
Si       0.54802818      -2.68250688      -2.51529462       0.00000000
Si      -3.60035064      -0.11629431      -1.12591600       0.00000000
Si       2.84338692      -0.94257198       2.33425625       0.00000000
