10
Lattice="16.28999089631971 0.0 0.0 0.0 16.28999089631971 0.0 0.0 0.0 34.3005442915855" Properties=species:S:1:pos:R:3:initial_magmoms:R:1 pbc="T T T"
Si       1.35629457       1.35687555       1.35713609       0.00000000
Si      -1.35841179      -1.35842310       1.35737620       0.00000000
Si      -1.35785793       1.35835794      -1.36169807       0.00000000
Si       1.35598832      -1.36042677      -1.36193817       0.00000000
Si       2.71445377      -0.00118917       2.71437509       0.00000000
Si       2.71341121      -2.71554300       0.00072031       0.00000000
Si      -0.00104793       2.71415835       2.71516400       0.00000000
Si      -2.71525476      -2.71461447      -0.00065171       0.00000000
Si      -0.00136776      -2.71573848       2.71471810       0.00000000
Si       2.71515424       2.71554300      -0.00106332       0.00000000
