10
Lattice="16.28999089631971 0.0 0.0 0.0 16.28999089631971 0.0 0.0 0.0 34.3005442915855" Properties=species:S:1:pos:R:3:initial_magmoms:R:1 pbc="T T T"
Si      -1.35514006       1.35420399       1.36022314       0.00000000
Si       1.35841658       1.35610992      -1.35720470       0.00000000
Si      -1.35740495      -1.35843939      -1.35686169       0.00000000
Si       1.36151168      -1.35941679       1.36245268       0.00000000
Si      -0.02121284      -2.71665072       2.71008752       0.00000000
Si      -2.71384625       2.71389771       0.00164643       0.00000000
Si       2.71558535       2.71261080      -0.00034301       0.00000000
Si       0.00025738       2.71417464      -2.71444369       0.00000000
Si      -2.71444898      -0.00112401      -2.71420359       0.00000000
Si       2.71573196      -0.00130320      -2.71437509       0.00000000
