10
Lattice="16.28999089631971 0.0 0.0 0.0 16.28999089631971 0.0 0.0 0.0 34.3005442915855" Properties=species:S:1:pos:R:3:initial_magmoms:R:1 pbc="T T T"
Si       1.35441576      -1.35666378      -1.36238408       0.00000000
Si       1.37068947       1.36270737       1.34698313       0.00000000
Si      -1.36151168       1.35941679      -1.36245268       0.00000000
Si      -1.38272452      -1.35723393       1.34763484       0.00000000
Si       2.61711882      -0.05437602       2.74867565       0.00000000
Si       2.71259451      -2.71282257      -0.00380736       0.00000000
Si       2.70941796       2.71629234      -0.00579680       0.00000000
Si       2.71125873       0.00135207      -2.71879986       0.00000000
Si      -2.71665175       2.71362078      -0.00222954       0.00000000
Si      -2.72120282      -2.71050939      -0.00579680       0.00000000
