10
Lattice="16.28999089631971 0.0 0.0 0.0 16.28999089631971 0.0 0.0 0.0 34.3005442915855" Properties=species:S:1:pos:R:3:initial_magmoms:R:1 pbc="T T T"
Si      -0.89919171       0.98126073       1.98545382       0.00000000
Si       1.87390386      -1.37995848       0.59933375       0.00000000
Si      -1.60708832      -1.59537744      -0.87764852       0.00000000
Si       0.53072820       1.82982312      -1.53680245       0.00000000
Si       1.79190000       0.20452095      -2.80657500       0.00000000
Si       0.88591536       0.33805008       3.37222560       0.00000000
Si       3.48211782       0.37556595       0.78671772       0.00000000
Si       1.47365856      -1.87844877       2.90954530       0.00000000
Si      -3.80197916      -0.53465409      -0.05011312       0.00000000
Si      -1.03352068       3.32371386       1.66697308       0.00000000
