10
Lattice="16.28999089631971 0.0 0.0 0.0 16.28999089631971 0.0 0.0 0.0 34.3005442915855" Properties=species:S:1:pos:R:3:initial_magmoms:R:1 pbc="T T T"
Si       0.03560994      -0.95506641       2.27261813       0.00000000
Si       0.37196586      -1.68251265      -1.78716226       0.00000000
Si      -2.51117680       0.65432043       0.32119048       0.00000000
Si       1.17822312       2.29938237      -1.07985034       0.00000000
Si      -2.20461692       1.90941606      -1.90810604       0.00000000
Si       3.49958070       0.46876104       0.88550335       0.00000000
Si       1.00082502       0.90171666       3.47740969       0.00000000
Si      -0.77193423       3.55441284      -1.05700616       0.00000000
Si      -1.49379300      -1.38383550      -3.19389697       0.00000000
Si       0.05947479      -3.75653916      -0.58986679       0.00000000
