10
Lattice="16.28999089631971 0.0 0.0 0.0 16.28999089631971 0.0 0.0 0.0 34.3005442915855" Properties=species:S:1:pos:R:3:initial_magmoms:R:1 pbc="T T T"
Si      -1.34416549      -1.36906047      -1.39603293       0.00000000
Si       1.37004276       1.34527707      -1.39713055       0.00000000
Si       1.45297515      -1.37406150       1.35034458       0.00000000
Si      -1.46896934       1.43874909       1.64210518       0.00000000
Si      -2.70295313      -2.70480789      -0.01402893       0.00000000
Si      -2.70632516       2.71425609      -0.00668861       0.00000000
Si       2.72600607       2.70239697      -0.03611849       0.00000000
Si      -2.70287168      -0.00936675      -2.75460965       0.00000000
Si       0.01238529       2.70746316      -2.75491836       0.00000000
Si       2.74317573      -2.71997388      -0.04682027       0.00000000
