10
Lattice="16.28999089631971 0.0 0.0 0.0 16.28999089631971 0.0 0.0 0.0 34.3005442915855" Properties=species:S:1:pos:R:3:initial_magmoms:R:1 pbc="T T T"
Si       1.21437715       1.11441519      -1.70295437       0.00000000
Si       1.78620502      -1.22764698       1.05055766       0.00000000
Si      -1.48569754      -1.38657222      -1.33559534       0.00000000
Si      -1.04043741       1.72163213       1.39136806       0.00000000
Si       2.52469588       2.48405300      -0.28863924       0.00000000
Si       3.28952767       0.72198909       1.31107044       0.00000000
Si       0.73872544       3.43494917       0.95986697       0.00000000
Si      -2.67955906       2.69113311      -0.09089649       0.00000000
Si      -3.14967217      -2.36477043       0.41160676       0.00000000
Si      -0.01664512       2.59577796      -3.02006171       0.00000000
