10
Lattice="16.28999089631971 0.0 0.0 0.0 16.28999089631971 0.0 0.0 0.0 34.3005442915855" Properties=species:S:1:pos:R:3:initial_magmoms:R:1 pbc="T T T"
Si       1.59685983      -0.36769788       1.63016858       0.00000000
Si      -0.01539405       2.22846290      -0.72257567       0.00000000
Si      -2.07490780      -0.84422925       0.80733236       0.00000000
Si       0.99266373      -0.38848392      -2.13593039       0.00000000
Si      -0.51065892      -2.33811999      -2.39644317       0.00000000
Si       1.81827351      -2.64574035       1.90529340       0.00000000
Si      -1.55813850       2.32447616      -2.48713386       0.00000000
Si       0.71591292       0.11793960       3.77899598       0.00000000
Si      -1.94057883      -3.18668238       1.12581309       0.00000000
Si       3.62331954       0.82455323       1.28400729       0.00000000
