10
Lattice="16.28999089631971 0.0 0.0 0.0 16.28999089631971 0.0 0.0 0.0 34.26581377546328" Properties=species:S:1:pos:R:3:initial_magmoms:R:1 pbc="T T T"
Si      -1.35584562       1.35684976      -1.35857174       0.00000000
Si       1.36024214      -1.35813842      -1.35750950       0.00000000
Si      -1.34957397      -1.38192182       1.35840041       0.00000000
Si       1.38604876       1.35354778       1.35864028       0.00000000
Si      -2.60882355      -0.00282671       2.74644077       0.00000000
Si      -2.71316100      -0.00224455      -2.71477915       0.00000000
Si       0.00215953       2.71334250      -2.71481341       0.00000000
Si       2.71366421      -2.71475333       0.00466015       0.00000000
Si      -2.70990300      -2.71905389      -0.00150770       0.00000000
Si      -2.71601175       2.71332621      -0.00147343       0.00000000
