10
Lattice="16.28999089631971 0.0 0.0 0.0 16.28999089631971 0.0 0.0 0.0 34.26581377546328" Properties=species:S:1:pos:R:3:initial_magmoms:R:1 pbc="T T T"
Si       1.30334661       1.03702140      -1.61964312       0.00000000
Si      -1.98080603      -0.50894847      -1.12964171       0.00000000
Si      -1.01847686       1.23271317       1.71298325       0.00000000
Si       0.80137026      -2.20607325       0.28358403       0.00000000
Si      -2.89425149      -0.15247440       2.09532142       0.00000000
Si       0.07486884      -2.61255762       2.48989248       0.00000000
Si       2.11436055      -0.70695342      -2.97184142       0.00000000
Si       1.20156669      -0.70252254       3.44518964       0.00000000
Si      -0.11048204      -3.41182647      -1.55337300       0.00000000
Si      -1.65924143       0.08821035      -3.38436779       0.00000000
