10
Lattice="16.28999089631971 0.0 0.0 0.0 16.28999089631971 0.0 0.0 0.0 34.26581377546328" Properties=species:S:1:pos:R:3:initial_magmoms:R:1 pbc="T T T"
Si      -0.19339488      -0.18127512       2.27007717       0.00000000
Si      -0.88910820       2.19121677       0.13949621       0.00000000
Si       2.28257109       0.50143878      -0.43277747       0.00000000
Si      -1.12669785      -1.91003508      -0.95529716       0.00000000
Si      -2.22004355       1.93523571      -1.73220639       0.00000000
Si      -0.40019643      -1.50355071      -3.16160561       0.00000000
Si       1.00489752       3.56718813       0.03173016       0.00000000
Si      -1.20156669       0.70252254      -3.44518964       0.00000000
Si       3.20803857      -1.29673287      -1.55847861       0.00000000
Si       0.62543826      -2.17702818       3.09698025       0.00000000
