10
Lattice="16.28999089631971 0.0 0.0 0.0 16.28999089631971 0.0 0.0 0.0 34.26581377546328" Properties=species:S:1:pos:R:3:initial_magmoms:R:1 pbc="T T T"
Si       1.35290079       1.35463730      -1.39835438       0.00000000
Si      -1.35759231      -1.36528678      -1.39667535       0.00000000
Si      -1.53086904       1.40608112       1.43148944       0.00000000
Si       1.50874722      -1.30079869       1.56265904       0.00000000
Si       2.69360037       2.71631840      -0.02240985       0.00000000
Si      -2.69840592      -2.72497232      -0.01367207       0.00000000
Si       2.70863604      -2.71773956      -0.02069656       0.00000000
Si      -2.72948724       2.70364478      -0.05999947       0.00000000
Si      -0.00110772       2.70810824      -2.75963312       0.00000000
Si       2.71601541      -0.00566729      -2.75778277       0.00000000
