10
Lattice="16.28999089631971 0.0 0.0 0.0 16.28999089631971 0.0 0.0 0.0 34.26581377546328" Properties=species:S:1:pos:R:3:initial_magmoms:R:1 pbc="T T T"
Si       2.29443021      -0.31328928      -0.29043720       0.00000000
Si      -1.03760784      -1.72190187      -1.20153143       0.00000000
Si      -0.32808060       1.80905337      -1.48213434       0.00000000
Si      -0.43505703       0.23728014       2.33305777       0.00000000
Si      -3.22454034      -0.99914715      -0.87103747       0.00000000
Si       0.50005413       0.67816899      -3.42853644       0.00000000
Si       3.13171992       1.46911365       1.06388558       0.00000000
Si       2.63728584       0.16086375      -2.60848653       0.00000000
Si      -0.27653904      -1.59161445      -3.47534357       0.00000000
Si       2.94642117      -2.60880929       0.00860072       0.00000000
