10
Lattice="16.28999089631971 0.0 0.0 0.0 16.28999089631971 0.0 0.0 0.0 34.26581377546328" Properties=species:S:1:pos:R:3:initial_magmoms:R:1 pbc="T T T"
Si      -1.76823063      -1.32291090       0.81977579       0.00000000
Si      -1.17657783       1.90972557       0.79517292       0.00000000
Si       0.43505703      -0.23728014      -2.33305777       0.00000000
Si       1.81672596      -0.48558861       1.50474979       0.00000000
Si      -0.91157211       1.50959430       3.17215948       0.00000000
Si      -0.83530233      -3.42163631       1.17768241       0.00000000
Si       0.93072915       0.09726759       3.60956284       0.00000000
Si       2.72948724      -0.55056942      -2.62349497       0.00000000
Si      -3.44048710      -1.39274613      -0.93902089       0.00000000
Si      -2.37314349      -0.34981146       2.99706108       0.00000000
