10
Lattice="16.28999089631971 0.0 0.0 0.0 16.28999089631971 0.0 0.0 0.0 34.26581377546328" Properties=species:S:1:pos:R:3:initial_magmoms:R:1 pbc="T T T"
Si      -2.15199764      -1.08742266       0.08768627       0.00000000
Si      -0.66431597       1.68917526      -1.66679291       0.00000000
Si       0.43598556       0.84650985       2.32103046       0.00000000
Si       2.05573284      -1.08954036      -1.34825773       0.00000000
Si       1.95579369      -0.98192862       2.46186303       0.00000000
Si      -1.52623470      -0.01053963      -3.08252006       0.00000000
Si      -2.22085547      -2.01887671      -1.98889174       0.00000000
Si      -3.47174828       0.66388266       0.90574876       0.00000000
Si       3.51639198      -1.22055268       0.68288378       0.00000000
Si      -2.55872636       2.81758356       0.71526500       0.00000000
