10
Lattice="16.28999089631971 0.0 0.0 0.0 16.28999089631971 0.0 0.0 0.0 34.26581377546328" Properties=species:S:1:pos:R:3:initial_magmoms:R:1 pbc="T T T"
Si       1.55463615       0.81021573       1.51602325       0.00000000
Si       0.88599681      -0.58285620      -2.10481305       0.00000000
Si      -1.84230126       1.41232671      -0.43740336       0.00000000
Si      -0.63271989      -1.94618259       1.26461483       0.00000000
Si      -1.95556563       1.73468952       1.94756715       0.00000000
Si      -3.30387264      -0.44707905      -0.61250176       0.00000000
Si       1.71748728       3.07289673       0.79596103       0.00000000
Si      -2.93189049      -1.58537538       1.54460095       0.00000000
Si       0.02272455       1.34205165       3.44577216       0.00000000
Si      -0.93072915      -0.09726759      -3.60956284       0.00000000
