10
Lattice="16.28999089631971 0.0 0.0 0.0 16.28999089631971 0.0 0.0 0.0 34.26581377546328" Properties=species:S:1:pos:R:3:initial_magmoms:R:1 pbc="T T T"
Si      -1.05643908      -2.02673664      -0.53602042       0.00000000
Si      -1.59923817       1.25292906       1.24508331       0.00000000
Si       1.55870865      -0.12937518       1.81173738       0.00000000
Si       0.99789282       0.87052131      -2.02798906       0.00000000
Si      -3.14737461      -1.07800704      -0.98017415       0.00000000
Si       3.16653165       1.15694838      -1.02914003       0.00000000
Si      -3.71398968       0.87185709       0.27361268       0.00000000
Si       3.39455907       1.27619118       1.37025639       0.00000000
Si       2.40336144      -2.36667636       2.00999949       0.00000000
Si      -1.13754699       3.59854245       1.09198356       0.00000000
