10
Lattice="16.28999089631971 0.0 0.0 0.0 16.28999089631971 0.0 0.0 0.0 34.26581377546328" Properties=species:S:1:pos:R:3:initial_magmoms:R:1 pbc="T T T"
Si       1.56271599       1.05661827      -1.56995767       0.00000000
Si      -0.91841391      -1.67860615      -1.57413810       0.00000000
Si       1.46065914      -0.13101232       2.03114151       0.00000000
Si      -2.05573284       1.08954036       1.34825773       0.00000000
Si      -2.61082762      -2.68391501      -0.24733078       0.00000000
Si      -0.09993915       0.10761174       3.81012076       0.00000000
Si      -2.30988616      -0.35765021      -3.04417660       0.00000000
Si       2.52413550       2.89874034      -0.25987208       0.00000000
Si       0.36409779       2.35418193      -3.06144658       0.00000000
Si      -2.72004881       2.77871562      -0.31853518       0.00000000
