10
Lattice="16.28999089631971 0.0 0.0 0.0 16.28999089631971 0.0 0.0 0.0 34.26581377546328" Properties=species:S:1:pos:R:3:initial_magmoms:R:1 pbc="T T T"
Si       1.69919361       1.15724160       1.03822047       0.00000000
Si      -0.16285113      -2.26268100       0.72006221       0.00000000
Si       0.75593745      -0.08083098      -2.26976877       0.00000000
Si      -1.69572384       1.63152495       0.83098071       0.00000000
Si       0.60194808       1.38943926       3.10308474       0.00000000
Si      -1.69476273      -1.73084508       2.64981113       0.00000000
Si      -1.71748728      -3.07289673      -0.79596103       0.00000000
Si       3.60126288      -0.02989215       0.25757627       0.00000000
Si       3.11215563       0.56891196      -2.00605892       0.00000000
Si      -1.64613708       3.48061914      -0.69189570       0.00000000
