10
Lattice="16.28999089631971 0.0 0.0 0.0 16.28999089631971 0.0 0.0 0.0 34.26581377546328" Properties=species:S:1:pos:R:3:initial_magmoms:R:1 pbc="T T T"
Si      -0.92546748       1.79817165       1.12570114       0.00000000
Si      -1.34197020      -0.80738127      -1.77466175       0.00000000
Si       1.94033448       0.89314812      -1.10277730       0.00000000
Si       0.51078924      -1.51415550       1.81249123       0.00000000
Si       2.75876037      -0.86439627       1.72593574       0.00000000
Si       3.28056165      -0.94697028      -0.57145130       0.00000000
Si       0.72154926       2.00208987       2.92774130       0.00000000
Si      -3.20803857       1.29673287       1.55847861       0.00000000
Si      -0.51846183       0.14133204      -3.83886979       0.00000000
Si       1.36410831       1.54386846      -3.32378579       0.00000000
