10
Lattice="16.28999089631971 0.0 0.0 0.0 16.28999089631971 0.0 0.0 0.0 34.26581377546328" Properties=species:S:1:pos:R:3:initial_magmoms:R:1 pbc="T T T"
Si      -1.04251113       0.89500518       1.94657344       0.00000000
Si       1.11166218       1.55511265      -1.51794213       0.00000000
Si       1.63290960      -1.58376267       1.14105224       0.00000000
Si      -1.66614120      -1.20749625      -1.56002058       0.00000000
Si      -2.14102728      -1.86691545       2.48865891       0.00000000
Si       3.07705068       2.29221870      -0.21995238       0.00000000
Si       2.31155100       0.13817178      -3.10129774       0.00000000
Si      -0.39410397      -2.58053148      -3.09276555       0.00000000
Si       2.81427669      -2.95314894      -0.42421101       0.00000000
Si      -3.09959604      -2.71474479      -0.45494746       0.00000000
