10
Lattice="16.28999089631971 0.0 0.0 0.0 16.28999089631971 0.0 0.0 0.0 34.26581377546328" Properties=species:S:1:pos:R:3:initial_magmoms:R:1 pbc="T T T"
Si      -0.49169736       0.65694312      -2.16926708       0.00000000
Si       0.02790477       1.79828146       1.48789100       0.00000000
Si      -2.26435887      -0.76921380       0.16865643       0.00000000
Si       1.97558604      -1.40110290       0.06589320       0.00000000
Si      -1.59021351      -2.10497751      -1.62718161       0.00000000
Si       0.21802536       0.81011799       3.64129300       0.00000000
Si      -1.47919716       2.83629981      -2.16385308       0.00000000
Si       1.74630429       3.30018200       1.01330921       0.00000000
Si       1.75337415      -3.39314184      -1.14718582       0.00000000
Si       3.79156266      -0.64132101      -1.27660787       0.00000000
