10
Lattice="16.28999089631971 0.0 0.0 0.0 16.28999089631971 0.0 0.0 0.0 34.26581377546328" Properties=species:S:1:pos:R:3:initial_magmoms:R:1 pbc="T T T"
Si       0.81806751      -0.94069116      -1.95143919       0.00000000
Si       0.86296275       2.12084234      -0.46951044       0.00000000
Si      -2.31774120       0.35445411       0.12914792       0.00000000
Si       0.72936846      -1.62535986       1.57369264       0.00000000
Si       3.13913187      -0.98139987      -1.40054739       0.00000000
Si      -1.40577813      -2.45150721       2.25606244       0.00000000
Si      -2.90072772      -0.61551879       2.17396150       0.00000000
Si       0.22063176       0.50206920      -3.72524429       0.00000000
Si       1.50118866      -3.51218169       0.30174492       0.00000000
Si       0.72488871       2.62094534      -2.78505837       0.00000000
