10
Lattice="16.28999089631971 0.0 0.0 0.0 16.28999089631971 0.0 0.0 0.0 34.26581377546328" Properties=species:S:1:pos:R:3:initial_magmoms:R:1 pbc="T T T"
Si       1.64072880       0.88881498       1.55760624       0.00000000
Si      -1.84142160       1.63135390      -0.07901701       0.00000000
Si       1.36914192      -0.15346483      -2.10673194       0.00000000
Si      -1.09125081      -1.90037415       1.52294635       0.00000000
Si      -2.60884350      -0.54682028      -1.70561610       0.00000000
Si      -1.27526265      -2.55822951      -1.56098002       0.00000000
Si       2.67450849       2.38369126       0.11760034       0.00000000
Si       0.18174753       2.12487575       2.97016038       0.00000000
Si      -1.07245215       3.33605354       1.40768980       0.00000000
Si      -2.53873134      -0.60024431       2.95702286       0.00000000
