10
Lattice="16.28999089631971 0.0 0.0 0.0 16.28999089631971 0.0 0.0 0.0 34.26581377546328" Properties=species:S:1:pos:R:3:initial_magmoms:R:1 pbc="T T T"
Si      -1.36454814      -1.34478837       1.39270051       0.00000000
Si       1.35047358       1.36808307       1.38978792       0.00000000
Si      -1.40411655       1.34653140      -1.39517108       0.00000000
Si       1.46044737      -1.49687181      -1.53041490       0.00000000
Si      -2.71454931      -2.70272277       0.01367549       0.00000000
Si       2.71464705      -2.70804960       0.03205569       0.00000000
Si       2.72246625       2.71031391       0.01796215       0.00000000
Si      -2.72706003       2.71329498       0.03701053       0.00000000
Si      -0.00864999      -2.70141957       2.75154638       0.00000000
Si       2.70743058       0.01277136       2.75377366       0.00000000
