10
Lattice="16.28999089631971 0.0 0.0 0.0 16.28999089631971 0.0 0.0 0.0 34.26581377546328" Properties=species:S:1:pos:R:3:initial_magmoms:R:1 pbc="T T T"
Si      -0.77522481      -1.67918949      -1.50468126       0.00000000
Si      -1.74943197       1.79636346      -0.18661173       0.00000000
Si       1.85038110       0.99173520      -1.38670399       0.00000000
Si       1.42602660      -1.91396097       0.80997576       0.00000000
Si      -0.10342521       0.51191325       3.12322787       0.00000000
Si      -2.09596914      -0.40624002      -3.00963664       0.00000000
Si      -2.66181858      -2.58751989      -0.22385869       0.00000000
Si       0.62801208       2.29635243      -2.99644429       0.00000000
Si       2.79448434       2.78529678       0.10745765       0.00000000
Si      -3.45419676       0.97668324      -1.67141880       0.00000000
