10
Lattice="16.28999089631971 0.0 0.0 0.0 16.28999089631971 0.0 0.0 0.0 34.26581377546328" Properties=species:S:1:pos:R:3:initial_magmoms:R:1 pbc="T T T"
Si      -1.81918575      -1.24843302       0.69340340       0.00000000
Si       1.01118546       1.86035058       0.95923773       0.00000000
Si      -0.03495834       0.39811131      -2.32092766       0.00000000
Si       1.53257949      -1.75161483       0.39628436       0.00000000
Si      -1.17094149      -3.02039406      -0.78715471       0.00000000
Si       3.28963518      -0.76887171      -0.73195246       0.00000000
Si       2.27532204       0.30193515      -2.60653338       0.00000000
Si      -0.97288767      -1.81201815      -2.90653075       0.00000000
Si       2.07741483       1.15961994       3.00569607       0.00000000
Si      -0.56158146       3.58344162       1.32663599       0.00000000
