10
Lattice="16.28999089631971 0.0 0.0 0.0 16.28999089631971 0.0 0.0 0.0 34.26581377546328" Properties=species:S:1:pos:R:3:initial_magmoms:R:1 pbc="T T T"
Si      -1.01118546      -1.86035058      -0.95923773       0.00000000
Si      -1.57276692       1.72309104       0.36739826       0.00000000
Si       1.83951567       1.06152156      -1.09321713       0.00000000
Si       1.06622937      -0.70073064       2.04645834       0.00000000
Si       1.55621628       2.98786293       0.27210498       0.00000000
Si       3.28049649      -0.76097106      -0.74034759       0.00000000
Si      -1.34473950       1.84233384       2.76679468       0.00000000
Si      -0.59438952       3.54682170      -0.70841183       0.00000000
Si       0.52139403      -3.61196541      -0.56295337       0.00000000
Si      -1.04614380      -1.46223927      -3.28016539       0.00000000
