10
Lattice="16.28999089631971 0.0 0.0 0.0 16.28999089631971 0.0 0.0 0.0 34.26581377546328" Properties=species:S:1:pos:R:3:initial_magmoms:R:1 pbc="T T T"
Si      -1.62122967      -1.06360668      -1.25815538       0.00000000
Si       1.12562271       1.60943571      -1.22582077       0.00000000
Si       1.34524449      -1.39033521       1.30093661       0.00000000
Si      -1.39056327       1.34732961       1.32029338       0.00000000
Si      -0.52398414      -1.29580434      -3.32301965       0.00000000
Si      -0.63685755       3.34720404      -1.28924031       0.00000000
Si      -2.70769122       2.60353296      -0.21091991       0.00000000
Si       2.68657938      -0.01633887       2.67252252       0.00000000
Si      -3.44069235       0.55382742      -1.50778715       0.00000000
Si      -0.03150486       2.70115893       2.67612043       0.00000000
