10
Lattice="16.28999089631971 0.0 0.0 0.0 16.28999089631971 0.0 0.0 0.0 34.26581377546328" Properties=species:S:1:pos:R:3:initial_magmoms:R:1 pbc="T T T"
Si       1.35860229      -1.35703845       1.36395148       0.00000000
Si      -1.35811359       1.36013355       1.36340323       0.00000000
Si      -1.34133489      -1.37399634      -1.37158591       0.00000000
Si       1.37212299       1.35575154      -1.38158810       0.00000000
Si      -2.68657938       0.01633887      -2.67252252       0.00000000
Si       2.71461447      -2.71225242       0.00764128       0.00000000
Si      -2.71332756      -2.71622718       0.00023986       0.00000000
Si       0.00003258      -2.71368594       2.72091273       0.00000000
Si      -2.71808424       2.71749780       0.00359791       0.00000000
Si       2.71767699       2.71831230       0.00640771       0.00000000
