10
Lattice="16.28999089631971 0.0 0.0 0.0 16.28999089631971 0.0 0.0 0.0 34.26581377546328" Properties=species:S:1:pos:R:3:initial_magmoms:R:1 pbc="T T T"
Si       0.93731031       1.74540834      -1.32248982       0.00000000
Si      -1.18136709       1.36938627       1.56526325       0.00000000
Si      -1.79502768      -1.03337244      -1.23987490       0.00000000
Si       1.67549166      -1.85991075       0.41650120       0.00000000
Si       2.21850252       0.37830267      -2.70922808       0.00000000
Si      -0.49098060      -2.34885510      -2.68740074       0.00000000
Si       3.38212980      -0.95956245      -1.18203417       0.00000000
Si      -1.61171631      -0.20193084       3.39286571       0.00000000
Si       0.73138842      -3.65347233      -1.07766045       0.00000000
Si       1.86759963      -1.39650912       3.09989284       0.00000000
