10
Lattice="16.28999089631971 0.0 0.0 0.0 16.28999089631971 0.0 0.0 0.0 34.26581377546328" Properties=species:S:1:pos:R:3:initial_magmoms:R:1 pbc="T T T"
Si       1.35744570       1.35687555      -1.35624167       0.00000000
Si      -1.35824391      -1.35790182      -1.35631020       0.00000000
Si       1.35620766      -1.35920502       1.35840041       0.00000000
Si      -1.35821133       1.35630540       1.36172420       0.00000000
Si       2.71433754       0.00503361       2.70734346       0.00000000
Si       2.71336014       2.71352304       0.00023986       0.00000000
Si       2.71399545       0.00048870      -2.71337425       0.00000000
Si      -0.00117288      -2.71505430      -2.71303159       0.00000000
Si      -0.00052128       2.71560816      -2.71388823       0.00000000
Si      -2.71565703      -0.00076563      -2.71385397       0.00000000
