10
Lattice="16.28999089631971 0.0 0.0 0.0 16.28999089631971 0.0 0.0 0.0 34.26581377546328" Properties=species:S:1:pos:R:3:initial_magmoms:R:1 pbc="T T T"
Si      -1.24044670       1.38320019       1.45236076       0.00000000
Si      -1.68926878      -0.91955421      -1.47953154       0.00000000
Si       1.11252066       1.80900450      -1.18682454       0.00000000
Si       1.48468200      -1.33463970       1.41427771       0.00000000
Si      -2.51667046       2.67775020      -0.03989228       0.00000000
Si      -0.69746449       3.32767233      -1.44882936       0.00000000
Si      -2.62506412      -2.60876205      -0.03935088       0.00000000
Si      -3.48517612       0.88651809      -1.28568973       0.00000000
Si      -2.59398280       0.02751381       2.81018893       0.00000000
Si       0.12328435      -2.68998399       2.80217073       0.00000000
