10
Lattice="16.28999089631971 0.0 0.0 0.0 16.28999089631971 0.0 0.0 0.0 34.26581377546328" Properties=species:S:1:pos:R:3:initial_magmoms:R:1 pbc="T T T"
Si       1.99905993       0.93716370       0.75713784       0.00000000
Si      -1.73794752       0.69300918       1.46911332       0.00000000
Si      -0.52002567       0.88503570      -2.16409294       0.00000000
Si       0.83843001      -2.27610396      -0.17869632       0.00000000
Si      -0.74223756      -1.10700324      -3.37717196       0.00000000
Si      -3.62051766      -0.70952724       0.95402932       0.00000000
Si       3.74489181       0.39441348      -0.79572117       0.00000000
Si      -1.16172135       0.04228884       3.69012181       0.00000000
Si       0.63732996      -2.90238930      -2.52672825       0.00000000
Si       2.04739236       3.29346333       0.80038133       0.00000000
