10
Lattice="16.28999089631971 0.0 0.0 0.0 16.28999089631971 0.0 0.0 0.0 34.26581377546328" Properties=species:S:1:pos:R:3:initial_magmoms:R:1 pbc="T T T"
Si      -2.16430569       0.53986689       0.68456281       0.00000000
Si       0.03974760       1.17128358      -2.02819465       0.00000000
Si      -0.12709458      -2.32661925      -0.51724275       0.00000000
Si       1.51063686       0.99450450       1.56670241       0.00000000
Si      -0.94552047      -0.56907486      -3.34595579       0.00000000
Si      -1.83213630       2.72894967       1.46548114       0.00000000
Si      -0.67297248      -1.07597079       3.39303704       0.00000000
Si       3.42718794      -0.31654728       1.15462151       0.00000000
Si       0.39470670      -2.40919326      -2.81462978       0.00000000
Si       1.48232484      -3.39960897       0.72184404       0.00000000
