10
Lattice="16.28999089631971 0.0 0.0 0.0 16.28999089631971 0.0 0.0 0.0 34.26581377546328" Properties=species:S:1:pos:R:3:initial_magmoms:R:1 pbc="T T T"
Si      -1.35705474       1.35518465       1.36062769       0.00000000
Si       1.35782830      -1.35955892       1.35956545       0.00000000
Si       1.35052079       1.35985988      -1.38313349       0.00000000
Si      -1.34403903      -1.36435659      -1.38808148       0.00000000
Si      -2.60319087       0.11371560      -2.77337029       0.00000000
Si      -2.71518462       2.71486208       0.00466015       0.00000000
Si       2.71886357       2.71238600      -0.00370071       0.00000000
Si       0.00162900       2.71409645       2.71776027       0.00000000
Si      -2.71388142      -0.00134067       2.71800013       0.00000000
Si      -2.71611315      -2.71686642       0.00106224       0.00000000
