10
Lattice="16.28999089631971 0.0 0.0 0.0 16.28999089631971 0.0 0.0 0.0 34.26581377546328" Properties=species:S:1:pos:R:3:initial_magmoms:R:1 pbc="T T T"
Si       1.21536432      -0.90651962      -1.75567848       0.00000000
Si       0.28484694      -1.63432424       1.63482289       0.00000000
Si       0.51595317       2.33827637       0.41341727       0.00000000
Si      -2.35302534      -0.13102536      -0.59478633       0.00000000
Si       1.83901068       1.30117352      -2.68561892       0.00000000
Si       0.51926004       3.05247884      -1.86755643       0.00000000
Si      -3.35782512       0.78182878       1.32999404       0.00000000
Si      -0.43932501      -0.70164029       3.65469094       0.00000000
Si      -0.40115754      -2.71671329      -2.64186145       0.00000000
Si       2.31130665      -2.71778843       1.82523812       0.00000000
