10
Lattice="16.28999089631971 0.0 0.0 0.0 16.28999089631971 0.0 0.0 0.0 34.26581377546328" Properties=species:S:1:pos:R:3:initial_magmoms:R:1 pbc="T T T"
Si      -1.35738070       1.35721764       1.35668712       0.00000000
Si       1.35777964       1.35721764      -1.35648153       0.00000000
Si      -1.35780580      -1.35617508      -1.35798922       0.00000000
Si       1.35763304      -1.35799956       1.35685845       0.00000000
Si       0.00233436       2.70949941      -2.71683510       0.00000000
Si       2.71473664       0.00000000       2.71344278       0.00000000
Si       2.71217911       0.00276930      -2.71628684       0.00000000
Si      -2.71508592       0.00118917      -2.71351131       0.00000000
Si      -2.71446690       2.71433754      -0.00030839       0.00000000
Si       0.00076726       2.71454931       2.71505327       0.00000000
