10
Lattice="16.28999089631971 0.0 0.0 0.0 16.28999089631971 0.0 0.0 0.0 34.26581377546328" Properties=species:S:1:pos:R:3:initial_magmoms:R:1 pbc="T T T"
Si      -1.41341814      -1.76597025      -0.55294775       0.00000000
Si      -1.42130250       1.75399643       0.72509929       0.00000000
Si       1.84959333       0.13388914      -1.49364766       0.00000000
Si       0.96115887      -0.63726806       2.08353397       0.00000000
Si       3.24873818       1.17954587       0.09710937       0.00000000
Si       2.59773439       1.02322703       2.36218372       0.00000000
Si      -0.87814503      -3.52970484       0.96893496       0.00000000
Si      -0.68924619      -2.69865420      -2.57281580       0.00000000
Si      -0.62490069      -0.07418466       3.75084087       0.00000000
Si      -0.96158241       2.13484034       3.02104716       0.00000000
