10
Lattice="16.28999089631971 0.0 0.0 0.0 16.28999089631971 0.0 0.0 0.0 34.26581377546328" Properties=species:S:1:pos:R:3:initial_magmoms:R:1 pbc="T T T"
Si       1.35708732      -1.35782037       1.35723538       0.00000000
Si       1.35767264       1.35705474      -1.35888014       0.00000000
Si      -1.35703845      -1.35770634      -1.35888014       0.00000000
Si      -1.36109466       1.36006839       1.35908573       0.00000000
Si      -2.71360449       2.71551042      -0.00157623       0.00000000
Si      -2.71313208      -2.71648782      -0.00188462       0.00000000
Si       0.00058644       2.71417464      -2.71587565       0.00000000
Si       2.71582060       2.71438641      -0.00051399       0.00000000
Si       0.00000000      -2.71476108      -2.71563579       0.00000000
Si      -2.71461447      -0.00040725      -2.71580712       0.00000000
