10
Lattice="16.28999089631971 0.0 0.0 0.0 16.28999089631971 0.0 0.0 0.0 34.26581377546328" Properties=species:S:1:pos:R:3:initial_magmoms:R:1 pbc="T T T"
Si       1.96366176       1.15448859       0.71876011       0.00000000
Si      -0.59733801       0.54838656      -2.31136749       0.00000000
Si       0.48690810      -2.03217750       1.31279259       0.00000000
Si      -2.11778145       0.39475557       1.29970304       0.00000000
Si       3.18432214      -0.04901661      -1.11840252       0.00000000
Si       2.42330040      -2.34962073      -1.28777853       0.00000000
Si      -2.31568866       2.76372882       1.05083030       0.00000000
Si       1.51006671       3.46090824       0.20867892       0.00000000
Si       0.13641246      -1.30321629       3.61696426       0.00000000
Si      -2.73932640      -0.34757973      -2.72392812       0.00000000
