10
Lattice="16.28999089631971 0.0 0.0 0.0 16.28999089631971 0.0 0.0 0.0 34.26581377546328" Properties=species:S:1:pos:R:3:initial_magmoms:R:1 pbc="T T T"
Si      -1.35736425       1.35683869       1.35702978       0.00000000
Si       1.35613414       1.35670476      -1.35860601       0.00000000
Si       1.35763633      -1.35754344       1.35689272       0.00000000
Si      -1.35684297      -1.35765747      -1.35870881       0.00000000
Si      -0.00092853      -2.71461447       2.71333998       0.00000000
Si       0.00296478      -2.71327869      -2.71508754       0.00000000
Si      -2.71578735      -0.00144981       2.71323718       0.00000000
Si      -0.00004887       2.71593300       2.71323718       0.00000000
Si       2.71555507       2.71403522      -0.00037692       0.00000000
Si      -2.71515204      -2.71448415      -0.00037692       0.00000000
