10
Lattice="16.28999089631971 0.0 0.0 0.0 16.28999089631971 0.0 0.0 0.0 34.26581377546328" Properties=species:S:1:pos:R:3:initial_magmoms:R:1 pbc="T T T"
Si      -1.35317772       1.35464382       1.35696125       0.00000000
Si      -1.35685926      -1.35744570      -1.35613887       0.00000000
Si       1.35856486       1.35707103      -1.35644726       0.00000000
Si       1.35839052      -1.35519768       1.36175847       0.00000000
Si       0.00715131       2.69177589       2.71686936       0.00000000
Si      -2.71388142       0.00467523       2.70700080       0.00000000
Si      -2.71274112      -2.71474479       0.00030839       0.00000000
Si      -2.71422351       0.00013032      -2.71371690       0.00000000
Si       0.00092853       2.71461447      -2.71333998       0.00000000
Si      -2.71485882       2.71316466      -0.00010280       0.00000000
