10
Lattice="16.28999089631971 0.0 0.0 0.0 16.28999089631971 0.0 0.0 0.0 34.26581377546328" Properties=species:S:1:pos:R:3:initial_magmoms:R:1 pbc="T T T"
Si      -1.28119221       1.36710567       1.38673826       0.00000000
Si       1.16362728      -1.33786512       1.52719391       0.00000000
Si       1.36070370       1.34996859      -1.35003955       0.00000000
Si      -1.35812988      -1.36423863      -1.34894304       0.00000000
Si      -2.21850252      -0.37830267       2.70922808       0.00000000
Si       2.27906874       0.20541690       2.91650210       0.00000000
Si       2.72103273       2.68710066       0.00986856       0.00000000
Si      -0.00097740       2.70848943      -2.70710360       0.00000000
Si       2.71388142      -0.00467523      -2.70700080       0.00000000
Si      -2.71433754      -0.00503361      -2.70734346       0.00000000
