10
Lattice="16.28999089631971 0.0 0.0 0.0 16.28999089631971 0.0 0.0 0.0 34.26581377546328" Properties=species:S:1:pos:R:3:initial_magmoms:R:1 pbc="T T T"
Si       0.77331725       1.84629231      -1.28102272       0.00000000
Si       1.52754425      -1.14339510       1.41879052       0.00000000
Si      -1.21902981       1.55251845       1.41198190       0.00000000
Si      -0.67030581      -1.91659995      -1.46574983       0.00000000
Si      -2.48951178      -2.56652208      -0.05681275       0.00000000
Si       2.58232175       2.70591561      -0.02668280       0.00000000
Si       0.15059616      -2.50844823       2.78994468       0.00000000
Si      -2.56376160       0.21380625       2.79203489       0.00000000
Si       1.13967935      -3.43526778      -1.20374500       0.00000000
Si      -2.53184949       2.87412615      -0.10809157       0.00000000
