10
Lattice="16.28999089631971 0.0 0.0 0.0 16.28999089631971 0.0 0.0 0.0 34.26581377546328" Properties=species:S:1:pos:R:3:initial_magmoms:R:1 pbc="T T T"
Si      -1.35708620       1.35711990      -1.35699552       0.00000000
Si       1.35738070      -1.35721764      -1.35668712       0.00000000
Si      -1.35767264      -1.35705474       1.35888014       0.00000000
Si       1.35814796       1.35733167       1.35836615       0.00000000
Si      -2.71371740      -0.00081450      -2.71388823       0.00000000
Si      -0.00042510      -2.71339272      -2.71467635       0.00000000
Si       2.71516034       0.00000000      -2.71316865       0.00000000
Si      -2.71471109      -2.71476108       0.00000000       0.00000000
Si       2.71550243      -0.00329058       2.71429942       0.00000000
Si       2.71493228       2.71510317       0.00041119       0.00000000
