10
Lattice="16.28999089631971 0.0 0.0 0.0 16.28999089631971 0.0 0.0 0.0 34.26581377546328" Properties=species:S:1:pos:R:3:initial_magmoms:R:1 pbc="T T T"
Si       2.26626480      -0.60056343      -0.17153476       0.00000000
Si      -0.72650142      -0.40648437       2.20630845       0.00000000
Si      -0.80137026       2.20607325      -0.28358403       0.00000000
Si      -0.91185230      -1.20575322      -1.83695704       0.00000000
Si       1.80457362      -2.94617682      -0.01843502       0.00000000
Si      -0.31017789      -3.32724879      -0.98990565       0.00000000
Si       0.40019643       1.50355071       3.16160561       0.00000000
Si      -2.78217629       1.69712478      -1.41322575       0.00000000
Si      -3.13345385      -0.57272382      -1.57992902       0.00000000
Si      -3.09693167      -0.26485911       1.91617964       0.00000000
