10
Lattice="16.28999089631971 0.0 0.0 0.0 16.28999089631971 0.0 0.0 0.0 34.26581377546328" Properties=species:S:1:pos:R:3:initial_magmoms:R:1 pbc="T T T"
Si       1.35058761       1.35282816       1.37140087       0.00000000
Si      -1.38677259       1.30203919      -1.38752980       0.00000000
Si      -1.36475828      -1.35871632       1.36958478       0.00000000
Si       1.06772805      -1.58050467      -1.44587766       0.00000000
Si      -2.16216518      -0.50152023      -2.80099339       0.00000000
Si      -0.74127645      -2.44012797      -2.70021758       0.00000000
Si       2.69687466      -2.72671794      -0.02208433       0.00000000
Si       2.71560816       2.71203155      -0.00944024       0.00000000
Si       2.70619254      -0.00146515       2.72952716       0.00000000
Si      -0.00938304       2.71256912       2.72915024       0.00000000
