10
Lattice="10.86 0.0 0.0 0.0 10.86 0.0 0.0 0.0 10.86" Properties=species:S:1:pos:R:3:initial_magmoms:R:1 pbc="T T T"
Si      -1.35839052      -1.24361118       1.28654076       0.00000000
Si       1.35660948      -1.24361118      -1.42845924       0.00000000
Si       1.35660948       1.47138882       1.28654076       0.00000000
Si      -0.00089052      -2.60111118       2.64404076       0.00000000
Si       2.71410948      -2.60111118      -0.07095924       0.00000000
Si      -2.71589052      -2.60111118      -0.07095924       0.00000000
Si       2.71410948       0.11388882       2.64404076       0.00000000
Si      -0.00089052      -2.60111118      -2.78595924       0.00000000
Si      -2.71001526       0.09350460       2.68062810       0.00000000
Si       2.71410948       0.11388882      -2.78595924       0.00000000
