10
Lattice="10.86 0.0 0.0 0.0 10.86 0.0 0.0 0.0 10.86" Properties=species:S:1:pos:R:3:initial_magmoms:R:1 pbc="T T T"
Si      -1.20159384       1.30759830      -1.39555344       0.00000000
Si      -1.20159384      -1.40740170       1.31944656       0.00000000
Si       1.51340616       1.30759830       1.31944656       0.00000000
Si       1.45836768      -1.39793178      -1.41436296       0.00000000
Si      -2.55909384       2.66509830      -0.03805344       0.00000000
Si      -2.55909384      -0.04990170       2.67694656       0.00000000
Si      -2.55909384      -0.04990170      -2.75305344       0.00000000
Si      -2.55909384      -2.76490170      -0.03805344       0.00000000
Si       0.15590616       2.66509830       2.67694656       0.00000000
Si       2.70891840       0.00800382       2.68264806       0.00000000
