10
Lattice="10.86 0.0 0.0 0.0 10.86 0.0 0.0 0.0 10.86" Properties=species:S:1:pos:R:3:initial_magmoms:R:1 pbc="T T T"
Si      -1.19551224       1.29959448      -1.36320150       0.00000000
Si      -1.19551224      -1.41540552       1.35179850       0.00000000
Si       1.51948776       1.29959448       1.35179850       0.00000000
Si      -2.47568904      -2.67049572       0.04933698       0.00000000
Si      -2.55301224       2.65709448      -0.00570150       0.00000000
Si      -2.55301224      -0.05790552       2.70929850       0.00000000
Si       0.16198776       2.65709448       2.70929850       0.00000000
Si       0.16198776       2.65709448      -2.72070150       0.00000000
Si      -2.70891840      -0.00800382      -2.68264806       0.00000000
Si       0.16198776      -2.77290552       2.70929850       0.00000000
