10
Lattice="16.28999089631971 0.0 0.0 0.0 16.28999089631971 0.0 0.0 0.0 34.25627252547053" Properties=species:S:1:pos:R:3:initial_magmoms:R:1 pbc="T T T"
Si      -1.29354720       1.31994449       1.38316629       0.00000000
Si       1.33706854       1.35296432      -1.34829338       0.00000000
Si       1.42189057      -1.30154591       1.34603247       0.00000000
Si      -1.37978485      -1.36333550      -1.34325771       0.00000000
Si      -2.06324809      -0.65940617       2.51163705       0.00000000
Si      -0.28167365      -2.28868866       2.53123165       0.00000000
Si       2.69397667       2.69568386       0.05182977       0.00000000
Si       2.69254315      -0.00254124      -2.70247885       0.00000000
Si      -0.02137900       2.70907424      -2.70326674       0.00000000
Si      -0.02182697      -2.71884240      -2.70426018       0.00000000
