10
Lattice="16.28999089631971 0.0 0.0 0.0 16.28999089631971 0.0 0.0 0.0 34.25627252547053" Properties=species:S:1:pos:R:3:initial_magmoms:R:1 pbc="T T T"
Si      -2.29040888      -0.38763684      -0.25640834       0.00000000
Si       0.33923273       0.41642127       2.29232827       0.00000000
Si       0.85086417       2.01890834      -0.89628162       0.00000000
Si       1.54794585      -1.72139688      -0.55464362       0.00000000
Si       3.20154375      -0.31545585       0.42964241       0.00000000
Si       3.12693555       1.98322346      -0.04460169       0.00000000
Si       2.59021263      -0.07620462       2.65236190       0.00000000
Si       0.71603184       1.64643749      -3.25109336       0.00000000
Si      -2.67291437      -0.27313443      -2.59717501       0.00000000
Si      -3.44665679       1.28287008       0.89991278       0.00000000
