10
Lattice="16.28999089631971 0.0 0.0 0.0 16.28999089631971 0.0 0.0 0.0 34.25627252547053" Properties=species:S:1:pos:R:3:initial_magmoms:R:1 pbc="T T T"
Si      -1.05386526       1.55246958      -1.41283566       0.00000000
Si      -1.37854125      -1.33758004       1.37045720       0.00000000
Si       1.34245890       1.37500632       1.37069700       0.00000000
Si       1.35597960      -1.44870880      -1.34318235       0.00000000
Si       2.36121921       0.13528845      -2.95540816       0.00000000
Si      -0.01246185      -2.70006971       2.72971260       0.00000000
Si       2.70102861       0.01594791       2.73008942       0.00000000
Si       2.69276958       2.73900060      -0.00994118       0.00000000
Si      -2.70962973       2.72253141      -0.00487124       0.00000000
Si      -2.74043412      -2.69155321      -0.01343532       0.00000000
