10
Lattice="16.28999089631971 0.0 0.0 0.0 16.28999089631971 0.0 0.0 0.0 34.25627252547053" Properties=species:S:1:pos:R:3:initial_magmoms:R:1 pbc="T T T"
Si      -1.35547461       1.35550556       1.35418547       0.00000000
Si       1.35878148       1.35513089      -1.35843325       0.00000000
Si      -1.35565380      -1.35978698      -1.35815920       0.00000000
Si       1.36163223      -1.36146511       1.35894709       0.00000000
Si      -2.69254315       0.00254124       2.70247885       0.00000000
Si      -2.71392215       2.71161548      -0.00078789       0.00000000
Si       2.71642266       2.71270691      -0.00154153       0.00000000
Si       0.00073305       2.71334222      -2.71594157       0.00000000
Si      -2.71403780      -0.00162737      -2.71624988       0.00000000
Si      -2.71437012      -2.71630116      -0.00178133       0.00000000
