10
Lattice="16.28999089631971 0.0 0.0 0.0 16.28999089631971 0.0 0.0 0.0 34.25627252547053" Properties=species:S:1:pos:R:3:initial_magmoms:R:1 pbc="T T T"
Si       1.70354304       1.13424012      -1.09109715       0.00000000
Si       1.30675122      -1.63958524       1.06108863       0.00000000
Si      -1.67291784      -0.77752170      -1.48103651       0.00000000
Si      -0.98145621       1.58892660       1.47980329       0.00000000
Si      -3.15898938       1.02952800      -1.24583282       0.00000000
Si       2.86811514      -0.15495048       2.10186329       0.00000000
Si      -0.22735953      -2.34765941       2.71981253       0.00000000
Si       3.18130668       1.66547331       0.67118352       0.00000000
Si      -3.29182618       1.33190298       1.08232754       0.00000000
Si       2.26114974      -0.17741439      -2.94953523       0.00000000
