10
Lattice="16.28999089631971 0.0 0.0 0.0 16.28999089631971 0.0 0.0 0.0 34.25627252547053" Properties=species:S:1:pos:R:3:initial_magmoms:R:1 pbc="T T T"
Si       0.27660420       0.72384615       2.21211172       0.00000000
Si       1.26501624      -1.92265331      -0.53522030       0.00000000
Si      -2.27623428      -0.31570020       0.56033016       0.00000000
Si       1.21300227       2.31990777       0.66751810       0.00000000
Si      -2.07327717      -1.23455394      -1.62398802       0.00000000
Si      -0.23133429      -2.73434980      -2.10086986       0.00000000
Si       3.18130668       1.46502486      -0.75219965       0.00000000
Si      -1.78588899       0.70400493      -3.22468176       0.00000000
Si       3.69168867      -0.69333498       0.66953922       0.00000000
Si       1.33046946      -0.82862343       3.62494738       0.00000000
