10
Lattice="16.28999089631971 0.0 0.0 0.0 16.28999089631971 0.0 0.0 0.0 34.25627252547053" Properties=species:S:1:pos:R:3:initial_magmoms:R:1 pbc="T T T"
Si      -1.20454190      -1.33113735      -1.57147312       0.00000000
Si       1.29505337       1.39680234      -1.50374844       0.00000000
Si      -2.12590269      -0.00454491       1.35959796       0.00000000
Si       1.50905510      -0.31402233       2.01584574       0.00000000
Si      -1.91427930      -2.46398956       1.76296579       0.00000000
Si       0.37488014      -2.52737558       2.66325540       0.00000000
Si      -1.97424279      -3.31048801      -0.44300236       0.00000000
Si      -1.48231737       0.44123094       3.59810960       0.00000000
Si       2.29558517       3.18428775      -0.21828109       0.00000000
Si      -2.64835557       0.05540229      -2.92000630       0.00000000
