10
Lattice="16.28999089631971 0.0 0.0 0.0 16.28999089631971 0.0 0.0 0.0 34.25627252547053" Properties=species:S:1:pos:R:3:initial_magmoms:R:1 pbc="T T T"
Si       1.31895243       1.25032266      -1.47528146       0.00000000
Si      -1.27358478      -1.59571953      -1.27957526       0.00000000
Si      -1.58061870       0.72804897       1.69911207       0.00000000
Si       1.68023205      -0.84014046       1.61960321       0.00000000
Si      -0.19704384      -2.38573566       1.93585730       0.00000000
Si       2.09872215       3.20668650      -0.05165849       0.00000000
Si       0.01754433       2.63044404      -2.82888457       0.00000000
Si      -2.68025886      -0.10578726      -2.80165081       0.00000000
Si      -1.60261020      -1.23312042       3.38023958       0.00000000
Si       2.74458807      -0.09708840      -2.83011779       0.00000000
